--ROM Init File
WIDTH = 8;
DEPTH = 30000;
ADDRESS_RADIX = HEX;
DATA_RADIX = HEX;
CONTENT
BEGIN
   0 : 0;
   1 : 14;
   2 : 0;
   3 : 0;
   4 : 0;
   5 : 0;
   6 : A;
   7 : 5;
   8 : F;
   9 : A;
   A : 5;
   B : A;
   C : F;
   D : 5;
   E : F;
   F : 5;
  10 : 1E;
  11 : F;
  12 : 14;
  13 : 5;
  14 : 14;
  15 : 5;
  16 : 5;
  17 : 5;
  18 : F;
  19 : 5;
  1A : 5;
  1B : 5;
  1C : 19;
  1D : 5;
  1E : 5;
  1F : 23;
  20 : 1E;
  21 : 0;
  22 : 5;
  23 : 0;
  24 : 0;
  25 : 0;
  26 : 5;
  27 : 0;
  28 : 0;
  29 : 0;
  2A : 0;
  2B : F;
  2C : 0;
  2D : 0;
  2E : A;
  2F : 28;
  30 : F;
  31 : 28;
  32 : 5;
  33 : 5;
  34 : 5;
  35 : F;
  36 : A;
  37 : A;
  38 : 5;
  39 : 19;
  3A : 28;
  3B : 23;
  3C : 5;
  3D : 5;
  3E : 5;
  3F : 5;
  40 : 5;
  41 : 0;
  42 : 5;
  43 : 0;
  44 : 0;
  45 : 5;
  46 : A;
  47 : 14;
  48 : 19;
  49 : 23;
  4A : 28;
  4B : 19;
  4C : 0;
  4D : 5;
  4E : 5;
  4F : 0;
  50 : 1E;
  51 : 5;
  52 : 0;
  53 : 23;
  54 : 5;
  55 : A;
  56 : 5;
  57 : A;
  58 : 5;
  59 : 0;
  5A : 14;
  5B : 19;
  5C : 2D;
  5D : 0;
  5E : 2D;
  5F : 23;
  60 : 23;
  61 : 0;
  62 : 5;
  63 : 5;
  64 : 20;
  65 : 30;
  66 : 21;
  67 : 11;
  68 : C;
  69 : 23;
  6A : 24;
  6B : 22;
  6C : 20;
  6D : 12;
  6E : 21;
  6F : 17;
  70 : 1F;
  71 : 2A;
  72 : 24;
  73 : 1B;
  74 : 40;
  75 : 1A;
  76 : 1D;
  77 : 1A;
  78 : 20;
  79 : 12;
  7A : B;
  7B : 21;
  7C : 21;
  7D : 28;
  7E : 16;
  7F : 16;
  80 : 28;
  81 : E;
  82 : 1A;
  83 : 22;
  84 : 1E;
  85 : 15;
  86 : 39;
  87 : 33;
  88 : 1D;
  89 : 2B;
  8A : 24;
  8B : A;
  8C : B;
  8D : 25;
  8E : 10;
  8F : 3C;
  90 : B;
  91 : 14;
  92 : 1F;
  93 : 26;
  94 : 16;
  95 : 20;
  96 : 10;
  97 : 1D;
  98 : 13;
  99 : 16;
  9A : 1F;
  9B : 16;
  9C : 7;
  9D : 21;
  9E : 22;
  9F : 18;
  A0 : 15;
  A1 : 2A;
  A2 : 2E;
  A3 : 1A;
  A4 : 22;
  A5 : 29;
  A6 : 15;
  A7 : 19;
  A8 : 9;
  A9 : D;
  AA : 29;
  AB : 2B;
  AC : 2F;
  AD : 31;
  AE : 33;
  AF : 22;
  B0 : 1C;
  B1 : 28;
  B2 : 24;
  B3 : 8;
  B4 : 37;
  B5 : 35;
  B6 : 17;
  B7 : 38;
  B8 : 2E;
  B9 : 12;
  BA : 18;
  BB : 33;
  BC : 1D;
  BD : D;
  BE : 26;
  BF : 1F;
  C0 : 45;
  C1 : D;
  C2 : 30;
  C3 : 2C;
  C4 : 23;
  C5 : 1F;
  C6 : 35;
  C7 : 34;
  C8 : 2D;
  C9 : 3E;
  CA : 2D;
  CB : 18;
  CC : 10;
  CD : 2E;
  CE : 29;
  CF : 25;
  D0 : 24;
  D1 : 14;
  D2 : 26;
  D3 : 19;
  D4 : 28;
  D5 : 2C;
  D6 : 1E;
  D7 : 1E;
  D8 : 44;
  D9 : 1C;
  DA : 23;
  DB : 10;
  DC : 23;
  DD : 14;
  DE : C;
  DF : 23;
  E0 : 24;
  E1 : 2A;
  E2 : 1B;
  E3 : 13;
  E4 : 23;
  E5 : D;
  E6 : 1D;
  E7 : 27;
  E8 : 25;
  E9 : E;
  EA : 25;
  EB : 24;
  EC : 23;
  ED : 34;
  EE : 2F;
  EF : 9;
  F0 : A;
  F1 : 25;
  F2 : 11;
  F3 : 3E;
  F4 : E;
  F5 : 19;
  F6 : 23;
  F7 : 2A;
  F8 : 18;
  F9 : 23;
  FA : 13;
  FB : 21;
  FC : 16;
  FD : 1E;
  FE : 23;
  FF : 1A;
 100 : 8;
 101 : 27;
 102 : 2E;
 103 : 20;
 104 : 1C;
 105 : 29;
 106 : 1C;
 107 : F;
 108 : 21;
 109 : 28;
 10A : 15;
 10B : 22;
 10C : C;
 10D : F;
 10E : 2A;
 10F : 2E;
 110 : 31;
 111 : 33;
 112 : 36;
 113 : 26;
 114 : 1D;
 115 : 28;
 116 : 24;
 117 : A;
 118 : 36;
 119 : 35;
 11A : 18;
 11B : 38;
 11C : 39;
 11D : 11;
 11E : 1F;
 11F : 35;
 120 : 1D;
 121 : E;
 122 : 20;
 123 : 18;
 124 : 3C;
 125 : 12;
 126 : 39;
 127 : 34;
 128 : 29;
 129 : 1A;
 12A : 26;
 12B : 25;
 12C : D;
 12D : 19;
 12E : F;
 12F : 10;
 130 : B;
 131 : 22;
 132 : 29;
 133 : 26;
 134 : 26;
 135 : 14;
 136 : 27;
 137 : 1B;
 138 : 33;
 139 : 2E;
 13A : 21;
 13B : 21;
 13C : 3D;
 13D : 1E;
 13E : 23;
 13F : 13;
 140 : 21;
 141 : 13;
 142 : D;
 143 : 21;
 144 : 18;
 145 : 28;
 146 : 23;
 147 : 19;
 148 : 2D;
 149 : 11;
 14A : 17;
 14B : 1F;
 14C : 20;
 14D : 19;
 14E : 41;
 14F : 3E;
 150 : 1B;
 151 : 28;
 152 : 25;
 153 : 10;
 154 : 10;
 155 : 3E;
 156 : 14;
 157 : 32;
 158 : 12;
 159 : 22;
 15A : 30;
 15B : 3F;
 15C : 23;
 15D : 36;
 15E : 1B;
 15F : 2D;
 160 : 21;
 161 : 24;
 162 : 26;
 163 : 1B;
 164 : 9;
 165 : 2F;
 166 : 32;
 167 : 27;
 168 : 21;
 169 : 3E;
 16A : 27;
 16B : 16;
 16C : 1E;
 16D : 21;
 16E : 11;
 16F : 2C;
 170 : D;
 171 : 15;
 172 : 14;
 173 : 15;
 174 : 16;
 175 : 15;
 176 : 18;
 177 : 11;
 178 : C;
 179 : 11;
 17A : 10;
 17B : D;
 17C : 18;
 17D : 1D;
 17E : C;
 17F : 16;
 180 : 16;
 181 : 8;
 182 : 27;
 183 : 12;
 184 : A;
 185 : 6;
 186 : 13;
 187 : 11;
 188 : 26;
 189 : 16;
 18A : 11;
 18B : 11;
 18C : E;
 18D : 11;
 18E : 1B;
 18F : 1B;
 190 : 2;
 191 : 8;
 192 : 3;
 193 : 3;
 194 : 2;
 195 : 6;
 196 : A;
 197 : 8;
 198 : 7;
 199 : 4;
 19A : 9;
 19B : 5;
 19C : 2D;
 19D : 9;
 19E : 8;
 19F : 6;
 1A0 : 16;
 1A1 : 5;
 1A2 : 7;
 1A3 : 10;
 1A4 : 6;
 1A5 : 3;
 1A6 : 3;
 1A7 : 6;
 1A8 : 8;
 1A9 : 9;
 1AA : 1E;
 1AB : 5;
 1AC : A;
 1AD : 4;
 1AE : 8;
 1AF : 9;
 1B0 : 9;
 1B1 : 3;
 1B2 : 7;
 1B3 : 7;
 1B4 : 8;
 1B5 : C;
 1B6 : C;
 1B7 : 4;
 1B8 : 4;
 1B9 : 11;
 1BA : 19;
 1BB : 20;
 1BC : F;
 1BD : 1D;
 1BE : 27;
 1BF : 34;
 1C0 : 1B;
 1C1 : 2B;
 1C2 : 18;
 1C3 : 27;
 1C4 : 1C;
 1C5 : 1F;
 1C6 : 30;
 1C7 : 1F;
 1C8 : C;
 1C9 : 39;
 1CA : 40;
 1CB : 2F;
 1CC : 1E;
 1CD : 3B;
 1CE : 23;
 1CF : 15;
 1D0 : 37;
 1D1 : 42;
 1D2 : 1F;
 1D3 : 32;
 1D4 : E;
 1D5 : 17;
 1D6 : 3;
 1D7 : 4;
 1D8 : 4;
 1D9 : 4;
 1DA : 4;
 1DB : 3;
 1DC : 3;
 1DD : 3;
 1DE : 4;
 1DF : B;
 1E0 : 4;
 1E1 : C;
 1E2 : 4;
 1E3 : 5;
 1E4 : B;
 1E5 : 2;
 1E6 : 21;
 1E7 : 4;
 1E8 : 3;
 1E9 : 3;
 1EA : 3;
 1EB : 6;
 1EC : 15;
 1ED : 14;
 1EE : 3;
 1EF : 3;
 1F0 : 3;
 1F1 : 5;
 1F2 : 3;
 1F3 : 4;
 1F4 : 4;
 1F5 : A;
 1F6 : 6;
 1F7 : 3;
 1F8 : 2;
 1F9 : 6;
 1FA : B;
 1FB : 7;
 1FC : 7;
 1FD : 4;
 1FE : 9;
 1FF : 5;
 200 : 2A;
 201 : 9;
 202 : 8;
 203 : 6;
 204 : 12;
 205 : 6;
 206 : 7;
 207 : E;
 208 : 7;
 209 : 4;
 20A : 3;
 20B : 6;
 20C : 9;
 20D : 9;
 20E : 19;
 20F : 3;
 210 : 6;
 211 : 3;
 212 : 4;
 213 : 5;
 214 : 5;
 215 : 2;
 216 : 6;
 217 : 6;
 218 : 4;
 219 : 5;
 21A : 4;
 21B : 1;
 21C : 1;
 21D : 5;
 21E : 13;
 21F : 1B;
 220 : D;
 221 : 18;
 222 : 26;
 223 : 31;
 224 : 1A;
 225 : 27;
 226 : 15;
 227 : 21;
 228 : 1A;
 229 : 1C;
 22A : 22;
 22B : 15;
 22C : 8;
 22D : 25;
 22E : 26;
 22F : 1E;
 230 : 1A;
 231 : 2C;
 232 : 18;
 233 : E;
 234 : 21;
 235 : 23;
 236 : 10;
 237 : 1E;
 238 : 9;
 239 : C;
 23A : 9;
 23B : 9;
 23C : 9;
 23D : 9;
 23E : A;
 23F : 7;
 240 : 6;
 241 : 7;
 242 : 7;
 243 : A;
 244 : B;
 245 : F;
 246 : 5;
 247 : B;
 248 : D;
 249 : 3;
 24A : 1D;
 24B : B;
 24C : 5;
 24D : 3;
 24E : 8;
 24F : 8;
 250 : 10;
 251 : 11;
 252 : 9;
 253 : 9;
 254 : 6;
 255 : 7;
 256 : 7;
 257 : 7;
 258 : A;
 259 : D;
 25A : A;
 25B : 6;
 25C : 4;
 25D : E;
 25E : 19;
 25F : 15;
 260 : 16;
 261 : B;
 262 : 15;
 263 : E;
 264 : 2B;
 265 : 18;
 266 : 11;
 267 : 11;
 268 : 1F;
 269 : 11;
 26A : 12;
 26B : F;
 26C : 13;
 26D : B;
 26E : 7;
 26F : 15;
 270 : D;
 271 : 1A;
 272 : 1E;
 273 : F;
 274 : 1A;
 275 : A;
 276 : 10;
 277 : 15;
 278 : 14;
 279 : 9;
 27A : 18;
 27B : 19;
 27C : A;
 27D : 10;
 27E : E;
 27F : 3;
 280 : 3;
 281 : D;
 282 : 15;
 283 : 1F;
 284 : 10;
 285 : 1C;
 286 : 27;
 287 : 34;
 288 : 1D;
 289 : 2E;
 28A : 16;
 28B : 27;
 28C : 1C;
 28D : 20;
 28E : 2E;
 28F : 1D;
 290 : C;
 291 : 35;
 292 : 3C;
 293 : 2D;
 294 : 1E;
 295 : 34;
 296 : 1F;
 297 : 14;
 298 : 24;
 299 : 2B;
 29A : 15;
 29B : 27;
 29C : B;
 29D : 12;
 29E : D;
 29F : E;
 2A0 : E;
 2A1 : F;
 2A2 : 10;
 2A3 : B;
 2A4 : 8;
 2A5 : D;
 2A6 : B;
 2A7 : B;
 2A8 : 10;
 2A9 : 15;
 2AA : 7;
 2AB : 10;
 2AC : C;
 2AD : 5;
 2AE : 23;
 2AF : 10;
 2B0 : 9;
 2B1 : 5;
 2B2 : A;
 2B3 : 9;
 2B4 : 15;
 2B5 : 12;
 2B6 : C;
 2B7 : A;
 2B8 : 8;
 2B9 : 9;
 2BA : C;
 2BB : C;
 2BC : 17;
 2BD : 1A;
 2BE : 17;
 2BF : D;
 2C0 : A;
 2C1 : 1A;
 2C2 : C;
 2C3 : 9;
 2C4 : 9;
 2C5 : 5;
 2C6 : 9;
 2C7 : 6;
 2C8 : E;
 2C9 : C;
 2CA : 8;
 2CB : 8;
 2CC : 14;
 2CD : 7;
 2CE : 9;
 2CF : 5;
 2D0 : 9;
 2D1 : 5;
 2D2 : 4;
 2D3 : A;
 2D4 : 9;
 2D5 : B;
 2D6 : 9;
 2D7 : 7;
 2D8 : D;
 2D9 : 5;
 2DA : B;
 2DB : E;
 2DC : E;
 2DD : B;
 2DE : 1B;
 2DF : 18;
 2E0 : 13;
 2E1 : 1D;
 2E2 : 1A;
 2E3 : 9;
 2E4 : A;
 2E5 : 24;
 2E6 : F;
 2E7 : 11;
 2E8 : 5;
 2E9 : A;
 2EA : C;
 2EB : 10;
 2EC : 9;
 2ED : D;
 2EE : 8;
 2EF : C;
 2F0 : 9;
 2F1 : A;
 2F2 : F;
 2F3 : A;
 2F4 : 4;
 2F5 : 16;
 2F6 : 1B;
 2F7 : 15;
 2F8 : 9;
 2F9 : 26;
 2FA : 18;
 2FB : D;
 2FC : 22;
 2FD : 28;
 2FE : 13;
 2FF : 2A;
 300 : C;
 301 : 13;
 302 : 1C;
 303 : 1E;
 304 : 21;
 305 : 1F;
 306 : 25;
 307 : 17;
 308 : 11;
 309 : 18;
 30A : 17;
 30B : 3;
 30C : 24;
 30D : 24;
 30E : 10;
 30F : 24;
 310 : 11;
 311 : C;
 312 : A;
 313 : 24;
 314 : 14;
 315 : A;
 316 : 1C;
 317 : 14;
 318 : 20;
 319 : 6;
 31A : 23;
 31B : 21;
 31C : 1C;
 31D : 10;
 31E : 21;
 31F : 21;
 320 : 11;
 321 : 17;
 322 : 14;
 323 : F;
 324 : A;
 325 : 1F;
 326 : 7;
 327 : 3;
 328 : 3;
 329 : 1;
 32A : 3;
 32B : 2;
 32C : 3;
 32D : 3;
 32E : 3;
 32F : 2;
 330 : A;
 331 : 2;
 332 : 2;
 333 : 2;
 334 : 2;
 335 : 1;
 336 : 3;
 337 : 2;
 338 : 5;
 339 : 3;
 33A : 2;
 33B : 2;
 33C : 4;
 33D : 2;
 33E : 3;
 33F : 4;
 340 : 4;
 341 : 3;
 342 : 7;
 343 : 7;
 344 : 6;
 345 : 9;
 346 : 8;
 347 : 3;
 348 : 3;
 349 : A;
 34A : B;
 34B : C;
 34C : 1;
 34D : 3;
 34E : 3;
 34F : 3;
 350 : 2;
 351 : 3;
 352 : 1;
 353 : 3;
 354 : 2;
 355 : 2;
 356 : 4;
 357 : 3;
 358 : 1;
 359 : 4;
 35A : 4;
 35B : 3;
 35C : 2;
 35D : 5;
 35E : 4;
 35F : 2;
 360 : 7;
 361 : 8;
 362 : 4;
 363 : A;
 364 : 5;
 365 : 5;
 366 : 6;
 367 : 6;
 368 : 6;
 369 : 7;
 36A : 7;
 36B : 5;
 36C : 4;
 36D : 5;
 36E : 5;
 36F : 1;
 370 : 8;
 371 : F;
 372 : 4;
 373 : 9;
 374 : B;
 375 : 2;
 376 : 2;
 377 : 8;
 378 : 4;
 379 : 3;
 37A : 8;
 37B : 7;
 37C : F;
 37D : 1;
 37E : 10;
 37F : 10;
 380 : C;
 381 : A;
 382 : 13;
 383 : 12;
 384 : 2;
 385 : 5;
 386 : 3;
 387 : 2;
 388 : 2;
 389 : 5;
 38A : 7;
 38B : 1;
 38C : 1;
 38D : 1;
 38E : 1;
 38F : 1;
 390 : 1;
 391 : 2;
 392 : 1;
 393 : 1;
 394 : 8;
 395 : 0;
 396 : 1;
 397 : 2;
 398 : 1;
 399 : 0;
 39A : 2;
 39B : 1;
 39C : 4;
 39D : 1;
 39E : 1;
 39F : 1;
 3A0 : 1;
 3A1 : 1;
 3A2 : 1;
 3A3 : 1;
 3A4 : 1;
 3A5 : 1;
 3A6 : 2;
 3A7 : 2;
 3A8 : 2;
 3A9 : 3;
 3AA : 3;
 3AB : 1;
 3AC : 1;
 3AD : 4;
 3AE : B;
 3AF : 9;
 3B0 : 0;
 3B1 : 2;
 3B2 : 1;
 3B3 : 1;
 3B4 : 1;
 3B5 : 1;
 3B6 : 0;
 3B7 : 2;
 3B8 : 0;
 3B9 : 1;
 3BA : 3;
 3BB : 2;
 3BC : 0;
 3BD : 2;
 3BE : 2;
 3BF : 1;
 3C0 : 1;
 3C1 : 3;
 3C2 : 3;
 3C3 : 1;
 3C4 : 2;
 3C5 : 3;
 3C6 : 2;
 3C7 : 3;
 3C8 : 4;
 3C9 : 3;
 3CA : 2;
 3CB : 2;
 3CC : 2;
 3CD : 2;
 3CE : 2;
 3CF : 1;
 3D0 : 1;
 3D1 : 1;
 3D2 : 3;
 3D3 : 0;
 3D4 : 2;
 3D5 : C;
 3D6 : 2;
 3D7 : 3;
 3D8 : 7;
 3D9 : 1;
 3DA : 1;
 3DB : 3;
 3DC : 1;
 3DD : 2;
 3DE : 2;
 3DF : 2;
 3E0 : 9;
 3E1 : 1;
 3E2 : 2;
 3E3 : 2;
 3E4 : 2;
 3E5 : 2;
 3E6 : 3;
 3E7 : 3;
 3E8 : 1;
 3E9 : 4;
 3EA : 3;
 3EB : 1;
 3EC : 1;
 3ED : 3;
 3EE : 8;
 3EF : 2;
 3F0 : 2;
 3F1 : 1;
 3F2 : 2;
 3F3 : 2;
 3F4 : 3;
 3F5 : 3;
 3F6 : 2;
 3F7 : 2;
 3F8 : 8;
 3F9 : 1;
 3FA : 2;
 3FB : 2;
 3FC : 2;
 3FD : 1;
 3FE : 2;
 3FF : 2;
 400 : 4;
 401 : 2;
 402 : 3;
 403 : 1;
 404 : 1;
 405 : 1;
 406 : 1;
 407 : 1;
 408 : 1;
 409 : 0;
 40A : 1;
 40B : 1;
 40C : 1;
 40D : 2;
 40E : 1;
 40F : 0;
 410 : 0;
 411 : 1;
 412 : B;
 413 : B;
 414 : 1;
 415 : 3;
 416 : 3;
 417 : 4;
 418 : 2;
 419 : 3;
 41A : 2;
 41B : 4;
 41C : 2;
 41D : 3;
 41E : 5;
 41F : 2;
 420 : 0;
 421 : 2;
 422 : 1;
 423 : 1;
 424 : 2;
 425 : 1;
 426 : 3;
 427 : 1;
 428 : 1;
 429 : 1;
 42A : 1;
 42B : 1;
 42C : 3;
 42D : 2;
 42E : 9;
 42F : A;
 430 : B;
 431 : B;
 432 : B;
 433 : 7;
 434 : 6;
 435 : 8;
 436 : 9;
 437 : 1;
 438 : C;
 439 : 10;
 43A : 5;
 43B : C;
 43C : 8;
 43D : 4;
 43E : 2;
 43F : C;
 440 : 6;
 441 : 4;
 442 : 7;
 443 : 6;
 444 : A;
 445 : 2;
 446 : 5;
 447 : 5;
 448 : 4;
 449 : 2;
 44A : 3;
 44B : 3;
 44C : C;
 44D : F;
 44E : C;
 44F : 8;
 450 : 6;
 451 : 10;
 452 : C;
 453 : 9;
 454 : 9;
 455 : 5;
 456 : 9;
 457 : 6;
 458 : A;
 459 : B;
 45A : 8;
 45B : 7;
 45C : D;
 45D : 7;
 45E : 8;
 45F : 4;
 460 : 7;
 461 : 5;
 462 : 3;
 463 : 8;
 464 : 6;
 465 : A;
 466 : 7;
 467 : 5;
 468 : 8;
 469 : 3;
 46A : 4;
 46B : 6;
 46C : 6;
 46D : 2;
 46E : 6;
 46F : 6;
 470 : 3;
 471 : 5;
 472 : 3;
 473 : 1;
 474 : 1;
 475 : 2;
 476 : C;
 477 : B;
 478 : 3;
 479 : 6;
 47A : A;
 47B : B;
 47C : 6;
 47D : A;
 47E : 5;
 47F : 9;
 480 : 6;
 481 : 7;
 482 : B;
 483 : 6;
 484 : 2;
 485 : 9;
 486 : A;
 487 : 8;
 488 : 7;
 489 : 9;
 48A : 5;
 48B : 3;
 48C : 5;
 48D : 6;
 48E : 3;
 48F : 5;
 490 : 4;
 491 : 3;
 492 : D;
 493 : E;
 494 : D;
 495 : F;
 496 : D;
 497 : A;
 498 : 7;
 499 : C;
 49A : B;
 49B : 2;
 49C : F;
 49D : 14;
 49E : 7;
 49F : 11;
 4A0 : 9;
 4A1 : 6;
 4A2 : 6;
 4A3 : 10;
 4A4 : 9;
 4A5 : 5;
 4A6 : E;
 4A7 : A;
 4A8 : 10;
 4A9 : 4;
 4AA : 14;
 4AB : 13;
 4AC : 10;
 4AD : A;
 4AE : 12;
 4AF : 12;
 4B0 : D;
 4B1 : F;
 4B2 : E;
 4B3 : A;
 4B4 : 7;
 4B5 : 15;
 4B6 : 9;
 4B7 : 4;
 4B8 : 4;
 4B9 : 2;
 4BA : 5;
 4BB : 3;
 4BC : 3;
 4BD : 6;
 4BE : 4;
 4BF : 4;
 4C0 : 9;
 4C1 : 3;
 4C2 : 4;
 4C3 : 1;
 4C4 : 4;
 4C5 : 3;
 4C6 : 3;
 4C7 : 4;
 4C8 : 4;
 4C9 : 5;
 4CA : 2;
 4CB : 5;
 4CC : 9;
 4CD : 3;
 4CE : 7;
 4CF : A;
 4D0 : 9;
 4D1 : 6;
 4D2 : 11;
 4D3 : 10;
 4D4 : A;
 4D5 : F;
 4D6 : D;
 4D7 : 4;
 4D8 : 4;
 4D9 : 11;
 4DA : B;
 4DB : 8;
 4DC : 1;
 4DD : 3;
 4DE : 3;
 4DF : 3;
 4E0 : 2;
 4E1 : 3;
 4E2 : 2;
 4E3 : 3;
 4E4 : 2;
 4E5 : 2;
 4E6 : 6;
 4E7 : 3;
 4E8 : 1;
 4E9 : 8;
 4EA : 9;
 4EB : 6;
 4EC : 2;
 4ED : C;
 4EE : 7;
 4EF : 4;
 4F0 : B;
 4F1 : D;
 4F2 : 6;
 4F3 : E;
 4F4 : 5;
 4F5 : 7;
 4F6 : 2;
 4F7 : 2;
 4F8 : 3;
 4F9 : 3;
 4FA : 3;
 4FB : 2;
 4FC : 2;
 4FD : 2;
 4FE : 4;
 4FF : 1;
 500 : 3;
 501 : C;
 502 : 2;
 503 : 4;
 504 : 5;
 505 : 1;
 506 : 2;
 507 : 4;
 508 : 2;
 509 : 2;
 50A : 3;
 50B : 3;
 50C : 7;
 50D : 1;
 50E : 7;
 50F : 7;
 510 : 5;
 511 : 6;
 512 : B;
 513 : C;
 514 : 2;
 515 : 4;
 516 : 3;
 517 : 2;
 518 : 1;
 519 : 4;
 51A : 7;
 51B : 1;
 51C : 1;
 51D : 0;
 51E : 1;
 51F : 1;
 520 : 1;
 521 : 2;
 522 : 1;
 523 : 0;
 524 : 5;
 525 : 0;
 526 : 1;
 527 : 1;
 528 : 0;
 529 : 0;
 52A : 2;
 52B : 1;
 52C : 2;
 52D : 1;
 52E : 1;
 52F : 0;
 530 : 1;
 531 : 1;
 532 : 1;
 533 : 2;
 534 : 1;
 535 : 1;
 536 : 4;
 537 : 4;
 538 : 4;
 539 : 7;
 53A : 6;
 53B : 3;
 53C : 3;
 53D : A;
 53E : C;
 53F : 5;
 540 : 0;
 541 : 2;
 542 : 1;
 543 : 1;
 544 : 1;
 545 : 1;
 546 : 1;
 547 : 2;
 548 : 1;
 549 : 1;
 54A : 3;
 54B : 1;
 54C : 0;
 54D : 1;
 54E : 1;
 54F : 1;
 550 : 1;
 551 : 2;
 552 : 2;
 553 : 1;
 554 : 3;
 555 : 3;
 556 : 2;
 557 : 3;
 558 : 3;
 559 : 2;
 55A : 3;
 55B : 3;
 55C : 3;
 55D : 3;
 55E : 3;
 55F : 2;
 560 : 2;
 561 : 2;
 562 : 3;
 563 : 0;
 564 : 3;
 565 : B;
 566 : 2;
 567 : 4;
 568 : 4;
 569 : 1;
 56A : 1;
 56B : 4;
 56C : 2;
 56D : 2;
 56E : 2;
 56F : 2;
 570 : 5;
 571 : 1;
 572 : 2;
 573 : 2;
 574 : 2;
 575 : 1;
 576 : 2;
 577 : 2;
 578 : 2;
 579 : 3;
 57A : 3;
 57B : 1;
 57C : 1;
 57D : 3;
 57E : 7;
 57F : 1;
 580 : 1;
 581 : 1;
 582 : 1;
 583 : 1;
 584 : 7;
 585 : 2;
 586 : 1;
 587 : 0;
 588 : 5;
 589 : 0;
 58A : 1;
 58B : 3;
 58C : 0;
 58D : 0;
 58E : 2;
 58F : 1;
 590 : 2;
 591 : 1;
 592 : 5;
 593 : 0;
 594 : 0;
 595 : 1;
 596 : 1;
 597 : 0;
 598 : 0;
 599 : 0;
 59A : 1;
 59B : 1;
 59C : 1;
 59D : 2;
 59E : 1;
 59F : 0;
 5A0 : 0;
 5A1 : 1;
 5A2 : D;
 5A3 : 8;
 5A4 : 2;
 5A5 : 5;
 5A6 : 7;
 5A7 : 8;
 5A8 : 4;
 5A9 : 6;
 5AA : 4;
 5AB : 6;
 5AC : 4;
 5AD : 5;
 5AE : 5;
 5AF : 3;
 5B0 : 1;
 5B1 : 2;
 5B2 : 2;
 5B3 : 2;
 5B4 : 5;
 5B5 : 1;
 5B6 : 2;
 5B7 : 1;
 5B8 : 1;
 5B9 : 1;
 5BA : 1;
 5BB : 1;
 5BC : 2;
 5BD : 2;
 5BE : 4;
 5BF : 4;
 5C0 : 4;
 5C1 : 4;
 5C2 : 5;
 5C3 : 3;
 5C4 : 2;
 5C5 : 4;
 5C6 : 4;
 5C7 : 2;
 5C8 : 5;
 5C9 : D;
 5CA : 2;
 5CB : 5;
 5CC : 3;
 5CD : 2;
 5CE : 5;
 5CF : 5;
 5D0 : 3;
 5D1 : 2;
 5D2 : 4;
 5D3 : 3;
 5D4 : 5;
 5D5 : 3;
 5D6 : 4;
 5D7 : 5;
 5D8 : 4;
 5D9 : 2;
 5DA : 4;
 5DB : 4;
 5DC : 4;
 5DD : 5;
 5DE : 5;
 5DF : 3;
 5E0 : 2;
 5E1 : 6;
 5E2 : 9;
 5E3 : 4;
 5E4 : 4;
 5E5 : 2;
 5E6 : 4;
 5E7 : 3;
 5E8 : A;
 5E9 : 5;
 5EA : 3;
 5EB : 3;
 5EC : 7;
 5ED : 3;
 5EE : 3;
 5EF : 4;
 5F0 : 3;
 5F1 : 2;
 5F2 : 3;
 5F3 : 4;
 5F4 : 2;
 5F5 : 4;
 5F6 : 6;
 5F7 : 1;
 5F8 : 3;
 5F9 : 1;
 5FA : 1;
 5FB : 1;
 5FC : 1;
 5FD : 0;
 5FE : 1;
 5FF : 1;
 600 : 1;
 601 : 2;
 602 : 1;
 603 : 0;
 604 : 0;
 605 : 1;
 606 : C;
 607 : 9;
 608 : 3;
 609 : 7;
 60A : A;
 60B : D;
 60C : 7;
 60D : A;
 60E : 5;
 60F : 9;
 610 : 7;
 611 : 7;
 612 : B;
 613 : 7;
 614 : 3;
 615 : C;
 616 : D;
 617 : A;
 618 : 6;
 619 : A;
 61A : 7;
 61B : 4;
 61C : 6;
 61D : 7;
 61E : 3;
 61F : 4;
 620 : 2;
 621 : 2;
 622 : 2;
 623 : 2;
 624 : 2;
 625 : 2;
 626 : 3;
 627 : 2;
 628 : 1;
 629 : 2;
 62A : 3;
 62B : 3;
 62C : 3;
 62D : C;
 62E : 1;
 62F : 3;
 630 : 3;
 631 : 1;
 632 : 8;
 633 : 3;
 634 : 1;
 635 : 1;
 636 : 3;
 637 : 2;
 638 : 6;
 639 : 4;
 63A : 5;
 63B : 4;
 63C : 3;
 63D : 3;
 63E : 5;
 63F : 5;
 640 : 3;
 641 : 4;
 642 : 3;
 643 : 2;
 644 : 2;
 645 : 5;
 646 : A;
 647 : 6;
 648 : 6;
 649 : 3;
 64A : 6;
 64B : 4;
 64C : 4;
 64D : 8;
 64E : 5;
 64F : 5;
 650 : 9;
 651 : 5;
 652 : 6;
 653 : 1;
 654 : 6;
 655 : 3;
 656 : 3;
 657 : 6;
 658 : 4;
 659 : 7;
 65A : 3;
 65B : 4;
 65C : 8;
 65D : 3;
 65E : 4;
 65F : 6;
 660 : 6;
 661 : 2;
 662 : 6;
 663 : 6;
 664 : 2;
 665 : 4;
 666 : 3;
 667 : 1;
 668 : 1;
 669 : 3;
 66A : C;
 66B : 5;
 66C : 1;
 66D : 3;
 66E : 4;
 66F : 5;
 670 : 2;
 671 : 4;
 672 : 2;
 673 : 3;
 674 : 2;
 675 : 3;
 676 : 5;
 677 : 2;
 678 : 1;
 679 : 8;
 67A : 8;
 67B : 6;
 67C : 3;
 67D : F;
 67E : 8;
 67F : 4;
 680 : E;
 681 : F;
 682 : 7;
 683 : 10;
 684 : 4;
 685 : 7;
 686 : 2;
 687 : 2;
 688 : 2;
 689 : 2;
 68A : 2;
 68B : 2;
 68C : 1;
 68D : 2;
 68E : 2;
 68F : 1;
 690 : 2;
 691 : C;
 692 : 1;
 693 : 3;
 694 : 3;
 695 : 1;
 696 : 3;
 697 : 3;
 698 : 1;
 699 : 1;
 69A : 1;
 69B : 1;
 69C : 5;
 69D : 2;
 69E : 2;
 69F : 2;
 6A0 : 1;
 6A1 : 2;
 6A2 : 3;
 6A3 : 2;
 6A4 : 1;
 6A5 : 3;
 6A6 : 3;
 6A7 : 1;
 6A8 : 1;
 6A9 : 2;
 6AA : 9;
 6AB : 5;
 6AC : 4;
 6AD : 2;
 6AE : 4;
 6AF : 3;
 6B0 : 6;
 6B1 : 6;
 6B2 : 3;
 6B3 : 4;
 6B4 : 7;
 6B5 : 3;
 6B6 : 4;
 6B7 : 2;
 6B8 : 4;
 6B9 : 2;
 6BA : 3;
 6BB : 5;
 6BC : 3;
 6BD : 5;
 6BE : 4;
 6BF : 3;
 6C0 : 5;
 6C1 : 2;
 6C2 : 4;
 6C3 : 6;
 6C4 : 5;
 6C5 : 4;
 6C6 : B;
 6C7 : A;
 6C8 : 7;
 6C9 : B;
 6CA : 9;
 6CB : 3;
 6CC : 3;
 6CD : B;
 6CE : B;
 6CF : 5;
 6D0 : 2;
 6D1 : 4;
 6D2 : 5;
 6D3 : 6;
 6D4 : 4;
 6D5 : 5;
 6D6 : 3;
 6D7 : 5;
 6D8 : 3;
 6D9 : 4;
 6DA : 5;
 6DB : 3;
 6DC : 1;
 6DD : 5;
 6DE : 5;
 6DF : 4;
 6E0 : 4;
 6E1 : 5;
 6E2 : 3;
 6E3 : 2;
 6E4 : 4;
 6E5 : 5;
 6E6 : 2;
 6E7 : 7;
 6E8 : 2;
 6E9 : 3;
 6EA : 5;
 6EB : 5;
 6EC : 6;
 6ED : 6;
 6EE : 7;
 6EF : 5;
 6F0 : 4;
 6F1 : 5;
 6F2 : 5;
 6F3 : 1;
 6F4 : 7;
 6F5 : D;
 6F6 : 3;
 6F7 : 8;
 6F8 : 3;
 6F9 : 2;
 6FA : 4;
 6FB : 7;
 6FC : 4;
 6FD : 2;
 6FE : 4;
 6FF : 3;
 700 : 6;
 701 : 2;
 702 : 4;
 703 : 4;
 704 : 3;
 705 : 2;
 706 : 2;
 707 : 2;
 708 : 5;
 709 : 5;
 70A : 5;
 70B : 2;
 70C : 2;
 70D : 5;
 70E : 5;
 70F : 4;
 710 : 4;
 711 : 2;
 712 : 4;
 713 : 3;
 714 : 2;
 715 : 5;
 716 : 3;
 717 : 3;
 718 : 5;
 719 : 3;
 71A : 3;
 71B : 1;
 71C : 4;
 71D : 2;
 71E : 2;
 71F : 4;
 720 : 2;
 721 : 4;
 722 : 1;
 723 : 3;
 724 : 6;
 725 : 2;
 726 : 4;
 727 : 5;
 728 : 5;
 729 : 3;
 72A : 6;
 72B : 7;
 72C : 4;
 72D : 6;
 72E : 6;
 72F : 2;
 730 : 2;
 731 : 9;
 732 : 4;
 733 : 2;
 734 : 1;
 735 : 1;
 736 : 1;
 737 : 2;
 738 : 1;
 739 : 2;
 73A : 1;
 73B : 1;
 73C : 1;
 73D : 1;
 73E : 3;
 73F : 2;
 740 : 1;
 741 : 5;
 742 : 5;
 743 : 4;
 744 : 1;
 745 : 8;
 746 : 4;
 747 : 2;
 748 : 6;
 749 : 7;
 74A : 3;
 74B : 6;
 74C : 1;
 74D : 3;
 74E : 3;
 74F : 3;
 750 : 3;
 751 : 3;
 752 : 3;
 753 : 2;
 754 : 2;
 755 : 2;
 756 : 2;
 757 : 0;
 758 : 3;
 759 : 5;
 75A : 2;
 75B : 4;
 75C : 1;
 75D : 1;
 75E : 1;
 75F : 4;
 760 : 2;
 761 : 1;
 762 : 4;
 763 : 3;
 764 : 5;
 765 : 1;
 766 : 7;
 767 : 7;
 768 : 6;
 769 : 4;
 76A : 7;
 76B : 7;
 76C : 5;
 76D : 6;
 76E : 6;
 76F : 4;
 770 : 3;
 771 : A;
 772 : 1;
 773 : 1;
 774 : 1;
 775 : 0;
 776 : 1;
 777 : 1;
 778 : 1;
 779 : 1;
 77A : 1;
 77B : 1;
 77C : 1;
 77D : 1;
 77E : 1;
 77F : 0;
 780 : 1;
 781 : 0;
 782 : 0;
 783 : 1;
 784 : 0;
 785 : 1;
 786 : 1;
 787 : 1;
 788 : 2;
 789 : 1;
 78A : 2;
 78B : 3;
 78C : 3;
 78D : 3;
 78E : 7;
 78F : 6;
 790 : 5;
 791 : 7;
 792 : 7;
 793 : 2;
 794 : 2;
 795 : 8;
 796 : 0;
 797 : 0;
 798 : 0;
 799 : 0;
 79A : 1;
 79B : 1;
 79C : 0;
 79D : 1;
 79E : 0;
 79F : 1;
 7A0 : 0;
 7A1 : 1;
 7A2 : 1;
 7A3 : 0;
 7A4 : 0;
 7A5 : 1;
 7A6 : 1;
 7A7 : 1;
 7A8 : 1;
 7A9 : 2;
 7AA : 1;
 7AB : 1;
 7AC : 3;
 7AD : 4;
 7AE : 2;
 7AF : 6;
 7B0 : 1;
 7B1 : 2;
 7B2 : 1;
 7B3 : 1;
 7B4 : 1;
 7B5 : 1;
 7B6 : 1;
 7B7 : 1;
 7B8 : 0;
 7B9 : 1;
 7BA : 1;
 7BB : 0;
 7BC : 1;
 7BD : 1;
 7BE : 0;
 7BF : 1;
 7C0 : 0;
 7C1 : 0;
 7C2 : 1;
 7C3 : 1;
 7C4 : 0;
 7C5 : 0;
 7C6 : 1;
 7C7 : 1;
 7C8 : 1;
 7C9 : 0;
 7CA : 2;
 7CB : 2;
 7CC : 2;
 7CD : 2;
 7CE : 4;
 7CF : 4;
 7D0 : 1;
 7D1 : 1;
 7D2 : 1;
 7D3 : 1;
 7D4 : 1;
 7D5 : 3;
 7D6 : 0;
 7D7 : 0;
 7D8 : 0;
 7D9 : 0;
 7DA : 0;
 7DB : 0;
 7DC : 0;
 7DD : 0;
 7DE : 0;
 7DF : 0;
 7E0 : 0;
 7E1 : 0;
 7E2 : 0;
 7E3 : 0;
 7E4 : 0;
 7E5 : 0;
 7E6 : 0;
 7E7 : 0;
 7E8 : 0;
 7E9 : 0;
 7EA : 0;
 7EB : 0;
 7EC : 0;
 7ED : 0;
 7EE : 0;
 7EF : 1;
 7F0 : 1;
 7F1 : 1;
 7F2 : 2;
 7F3 : 2;
 7F4 : 2;
 7F5 : 3;
 7F6 : 3;
 7F7 : 1;
 7F8 : 1;
 7F9 : 6;
 7FA : 0;
 7FB : 0;
 7FC : 0;
 7FD : 0;
 7FE : 0;
 7FF : 0;
 800 : 0;
 801 : 0;
 802 : 0;
 803 : 0;
 804 : 0;
 805 : 0;
 806 : 0;
 807 : 0;
 808 : 0;
 809 : 1;
 80A : 1;
 80B : 1;
 80C : 0;
 80D : 1;
 80E : 1;
 80F : 0;
 810 : 1;
 811 : 1;
 812 : 0;
 813 : 1;
 814 : 0;
 815 : 1;
 816 : 0;
 817 : 0;
 818 : 0;
 819 : 0;
 81A : 0;
 81B : 0;
 81C : 0;
 81D : 0;
 81E : 0;
 81F : 0;
 820 : 0;
 821 : 0;
 822 : 0;
 823 : 0;
 824 : 0;
 825 : 0;
 826 : 0;
 827 : 0;
 828 : 0;
 829 : 0;
 82A : 0;
 82B : 0;
 82C : 0;
 82D : 0;
 82E : 1;
 82F : 1;
 830 : 0;
 831 : 0;
 832 : 1;
 833 : 1;
 834 : 0;
 835 : 0;
 836 : 0;
 837 : 0;
 838 : 0;
 839 : 1;
 83A : 0;
 83B : 0;
 83C : 0;
 83D : 0;
 83E : 0;
 83F : 0;
 840 : 0;
 841 : 0;
 842 : 0;
 843 : 0;
 844 : 0;
 845 : 0;
 846 : 0;
 847 : 0;
 848 : 0;
 849 : 0;
 84A : 0;
 84B : 0;
 84C : 0;
 84D : 0;
 84E : 0;
 84F : 0;
 850 : 0;
 851 : 0;
 852 : 0;
 853 : 0;
 854 : 0;
 855 : 0;
 856 : 0;
 857 : 0;
 858 : 0;
 859 : 1;
 85A : 0;
 85B : 0;
 85C : 0;
 85D : 1;
 85E : 0;
 85F : 0;
 860 : 0;
 861 : 0;
 862 : 0;
 863 : 0;
 864 : 0;
 865 : 0;
 866 : 0;
 867 : 0;
 868 : 0;
 869 : 0;
 86A : 0;
 86B : 0;
 86C : 0;
 86D : 0;
 86E : 0;
 86F : 0;
 870 : 0;
 871 : 0;
 872 : 0;
 873 : 0;
 874 : 0;
 875 : 1;
 876 : 0;
 877 : 1;
 878 : 0;
 879 : 0;
 87A : 0;
 87B : 0;
 87C : 0;
 87D : 0;
 87E : 0;
 87F : 0;
 880 : 0;
 881 : 0;
 882 : 0;
 883 : 0;
 884 : 0;
 885 : 0;
 886 : 0;
 887 : 0;
 888 : 0;
 889 : 0;
 88A : 0;
 88B : 0;
 88C : 0;
 88D : 0;
 88E : 0;
 88F : 0;
 890 : 0;
 891 : 0;
 892 : 0;
 893 : 0;
 894 : 0;
 895 : 0;
 896 : 0;
 897 : 0;
 898 : 0;
 899 : 0;
 89A : 0;
 89B : 0;
 89C : 0;
 89D : 0;
 89E : 0;
 89F : 0;
 8A0 : 0;
 8A1 : 0;
 8A2 : 0;
 8A3 : 0;
 8A4 : 0;
 8A5 : 0;
 8A6 : 0;
 8A7 : 0;
 8A8 : 0;
 8A9 : 0;
 8AA : 0;
 8AB : 0;
 8AC : 0;
 8AD : 0;
 8AE : 0;
 8AF : 0;
 8B0 : 0;
 8B1 : 0;
 8B2 : 0;
 8B3 : 0;
 8B4 : 0;
 8B5 : 0;
 8B6 : 0;
 8B7 : 0;
 8B8 : 0;
 8B9 : 0;
 8BA : 0;
 8BB : 0;
 8BC : 0;
 8BD : 0;
 8BE : 0;
 8BF : 0;
 8C0 : 0;
 8C1 : 0;
 8C2 : 0;
 8C3 : 0;
 8C4 : 0;
 8C5 : 0;
 8C6 : 0;
 8C7 : 0;
 8C8 : 0;
 8C9 : 0;
 8CA : 0;
 8CB : 0;
 8CC : 0;
 8CD : 0;
 8CE : 0;
 8CF : 0;
 8D0 : 0;
 8D1 : 0;
 8D2 : 0;
 8D3 : 0;
 8D4 : 0;
 8D5 : 0;
 8D6 : 0;
 8D7 : 0;
 8D8 : 0;
 8D9 : 0;
 8DA : 0;
 8DB : 0;
 8DC : 0;
 8DD : 0;
 8DE : 0;
 8DF : 0;
 8E0 : 0;
 8E1 : 0;
 8E2 : 0;
 8E3 : 0;
 8E4 : 0;
 8E5 : 0;
 8E6 : 0;
 8E7 : 0;
 8E8 : 0;
 8E9 : 0;
 8EA : 0;
 8EB : 0;
 8EC : 0;
 8ED : 0;
 8EE : 0;
 8EF : 0;
 8F0 : 0;
 8F1 : 0;
 8F2 : 0;
 8F3 : 0;
 8F4 : 0;
 8F5 : 0;
 8F6 : 0;
 8F7 : 0;
 8F8 : 0;
 8F9 : 0;
 8FA : 0;
 8FB : 0;
 8FC : 0;
 8FD : 0;
 8FE : 0;
 8FF : 0;
 900 : 0;
 901 : 0;
 902 : 0;
 903 : 0;
 904 : 0;
 905 : 0;
 906 : 0;
 907 : 0;
 908 : 0;
 909 : 0;
 90A : 0;
 90B : 0;
 90C : 0;
 90D : 0;
 90E : 0;
 90F : 0;
 910 : 0;
 911 : 0;
 912 : 0;
 913 : 0;
 914 : 0;
 915 : 0;
 916 : 0;
 917 : 0;
 918 : 0;
 919 : 0;
 91A : 0;
 91B : 0;
 91C : 0;
 91D : 0;
 91E : 0;
 91F : 0;
 920 : 0;
 921 : 0;
 922 : 0;
 923 : 0;
 924 : 0;
 925 : 0;
 926 : 0;
 927 : 0;
 928 : 0;
 929 : 0;
 92A : 0;
 92B : 0;
 92C : 0;
 92D : 0;
 92E : 0;
 92F : 0;
 930 : 0;
 931 : 0;
 932 : 0;
 933 : 0;
 934 : 0;
 935 : 0;
 936 : 0;
 937 : 0;
 938 : 0;
 939 : 0;
 93A : 0;
 93B : 0;
 93C : 0;
 93D : 0;
 93E : 0;
 93F : 0;
 940 : 0;
 941 : 0;
 942 : 0;
 943 : 0;
 944 : 1;
 945 : 0;
 946 : 0;
 947 : 0;
 948 : 0;
 949 : 0;
 94A : 0;
 94B : 0;
 94C : 0;
 94D : 0;
 94E : 0;
 94F : 0;
 950 : 0;
 951 : 0;
 952 : 0;
 953 : 0;
 954 : 0;
 955 : 0;
 956 : 0;
 957 : 0;
 958 : 0;
 959 : 0;
 95A : 0;
 95B : 0;
 95C : 0;
 95D : 0;
 95E : 0;
 95F : 0;
 960 : 0;
 961 : 0;
 962 : 0;
 963 : 0;
 964 : 0;
 965 : 0;
 966 : 0;
 967 : 0;
 968 : 0;
 969 : 0;
 96A : 0;
 96B : 0;
 96C : 0;
 96D : 0;
 96E : 0;
 96F : 0;
 970 : 0;
 971 : 0;
 972 : 0;
 973 : 0;
 974 : 0;
 975 : 0;
 976 : 0;
 977 : 0;
 978 : 0;
 979 : 0;
 97A : 0;
 97B : 0;
 97C : 0;
 97D : 0;
 97E : 0;
 97F : 0;
 980 : 0;
 981 : 0;
 982 : 0;
 983 : 1;
 984 : 0;
 985 : 0;
 986 : 0;
 987 : 0;
 988 : 0;
 989 : 1;
 98A : 0;
 98B : 0;
 98C : 0;
 98D : 0;
 98E : 0;
 98F : 1;
 990 : 0;
 991 : 1;
 992 : 0;
 993 : 0;
 994 : 0;
 995 : 0;
 996 : 0;
 997 : 0;
 998 : 0;
 999 : 0;
 99A : 1;
 99B : 0;
 99C : 0;
 99D : 1;
 99E : 0;
 99F : 0;
 9A0 : 0;
 9A1 : 0;
 9A2 : 0;
 9A3 : 0;
 9A4 : 0;
 9A5 : 0;
 9A6 : 0;
 9A7 : 0;
 9A8 : 1;
 9A9 : 0;
 9AA : 1;
 9AB : 0;
 9AC : 0;
 9AD : 0;
 9AE : 0;
 9AF : 0;
 9B0 : 0;
 9B1 : 0;
 9B2 : 0;
 9B3 : 0;
 9B4 : 0;
 9B5 : 0;
 9B6 : 0;
 9B7 : 0;
 9B8 : 0;
 9B9 : 0;
 9BA : 0;
 9BB : 0;
 9BC : 0;
 9BD : 0;
 9BE : 0;
 9BF : 0;
 9C0 : 0;
 9C1 : 0;
 9C2 : 0;
 9C3 : 0;
 9C4 : 1;
 9C5 : 1;
 9C6 : 1;
 9C7 : 0;
 9C8 : 0;
 9C9 : 1;
 9CA : 1;
 9CB : 1;
 9CC : 1;
 9CD : 0;
 9CE : 1;
 9CF : 1;
 9D0 : 1;
 9D1 : 1;
 9D2 : 1;
 9D3 : 1;
 9D4 : 1;
 9D5 : 1;
 9D6 : 1;
 9D7 : 0;
 9D8 : 1;
 9D9 : 0;
 9DA : 0;
 9DB : 1;
 9DC : 0;
 9DD : 1;
 9DE : 1;
 9DF : 0;
 9E0 : 1;
 9E1 : 0;
 9E2 : 1;
 9E3 : 1;
 9E4 : 1;
 9E5 : 0;
 9E6 : 1;
 9E7 : 1;
 9E8 : 1;
 9E9 : 1;
 9EA : 1;
 9EB : 0;
 9EC : 0;
 9ED : 1;
 9EE : 0;
 9EF : 1;
 9F0 : 0;
 9F1 : 1;
 9F2 : 1;
 9F3 : 1;
 9F4 : 1;
 9F5 : 1;
 9F6 : 1;
 9F7 : 1;
 9F8 : 1;
 9F9 : 1;
 9FA : 1;
 9FB : 1;
 9FC : 0;
 9FD : 1;
 9FE : 1;
 9FF : 1;
 A00 : 1;
 A01 : 1;
 A02 : 1;
 A03 : 0;
 A04 : 1;
 A05 : 1;
 A06 : 1;
 A07 : 1;
 A08 : 0;
 A09 : 0;
 A0A : 1;
 A0B : 1;
 A0C : 1;
 A0D : 1;
 A0E : 1;
 A0F : 1;
 A10 : 1;
 A11 : 1;
 A12 : 1;
 A13 : 0;
 A14 : 1;
 A15 : 1;
 A16 : 0;
 A17 : 1;
 A18 : 0;
 A19 : 0;
 A1A : 1;
 A1B : 1;
 A1C : 1;
 A1D : 0;
 A1E : 1;
 A1F : 1;
 A20 : 1;
 A21 : 1;
 A22 : 1;
 A23 : 1;
 A24 : 1;
 A25 : 0;
 A26 : 1;
 A27 : 1;
 A28 : 0;
 A29 : 0;
 A2A : 0;
 A2B : 0;
 A2C : 0;
 A2D : 1;
 A2E : 0;
 A2F : 0;
 A30 : 1;
 A31 : 0;
 A32 : 0;
 A33 : 0;
 A34 : 1;
 A35 : 0;
 A36 : 0;
 A37 : 0;
 A38 : 1;
 A39 : 0;
 A3A : 0;
 A3B : 0;
 A3C : 0;
 A3D : 0;
 A3E : 0;
 A3F : 0;
 A40 : 0;
 A41 : 0;
 A42 : 0;
 A43 : 0;
 A44 : 0;
 A45 : 0;
 A46 : 0;
 A47 : 0;
 A48 : 0;
 A49 : 0;
 A4A : 1;
 A4B : 1;
 A4C : 0;
 A4D : 0;
 A4E : 0;
 A4F : 0;
 A50 : 0;
 A51 : 1;
 A52 : 0;
 A53 : 0;
 A54 : 0;
 A55 : 0;
 A56 : 1;
 A57 : 1;
 A58 : 0;
 A59 : 1;
 A5A : 0;
 A5B : 0;
 A5C : 0;
 A5D : 0;
 A5E : 0;
 A5F : 0;
 A60 : 0;
 A61 : 0;
 A62 : 1;
 A63 : 0;
 A64 : 0;
 A65 : 1;
 A66 : 0;
 A67 : 0;
 A68 : 0;
 A69 : 1;
 A6A : 0;
 A6B : 1;
 A6C : 0;
 A6D : 0;
 A6E : 0;
 A6F : 1;
 A70 : 1;
 A71 : 1;
 A72 : 1;
 A73 : 0;
 A74 : 0;
 A75 : 0;
 A76 : 0;
 A77 : 0;
 A78 : 1;
 A79 : 1;
 A7A : 0;
 A7B : 1;
 A7C : 0;
 A7D : 0;
 A7E : 0;
 A7F : 0;
 A80 : 0;
 A81 : 0;
 A82 : 0;
 A83 : 0;
 A84 : 0;
 A85 : 0;
 A86 : 0;
 A87 : 0;
 A88 : 0;
 A89 : 0;
 A8A : 0;
 A8B : 1;
 A8C : 0;
 A8D : 0;
 A8E : 0;
 A8F : 0;
 A90 : 0;
 A91 : 0;
 A92 : 0;
 A93 : 0;
 A94 : 0;
 A95 : 0;
 A96 : 0;
 A97 : 0;
 A98 : 0;
 A99 : 0;
 A9A : 0;
 A9B : 0;
 A9C : 0;
 A9D : 0;
 A9E : 0;
 A9F : 0;
 AA0 : 0;
 AA1 : 0;
 AA2 : 0;
 AA3 : 0;
 AA4 : 0;
 AA5 : 0;
 AA6 : 0;
 AA7 : 0;
 AA8 : 0;
 AA9 : 0;
 AAA : 0;
 AAB : 0;
 AAC : 0;
 AAD : 0;
 AAE : 0;
 AAF : 0;
 AB0 : 0;
 AB1 : 0;
 AB2 : 0;
 AB3 : 0;
 AB4 : 0;
 AB5 : 0;
 AB6 : 0;
 AB7 : 0;
 AB8 : 0;
 AB9 : 0;
 ABA : 0;
 ABB : 0;
 ABC : 0;
 ABD : 0;
 ABE : 0;
 ABF : 0;
 AC0 : 0;
 AC1 : 0;
 AC2 : 0;
 AC3 : 0;
 AC4 : 0;
 AC5 : 0;
 AC6 : 0;
 AC7 : 0;
 AC8 : 0;
 AC9 : 0;
 ACA : 0;
 ACB : 0;
 ACC : 0;
 ACD : 0;
 ACE : 0;
 ACF : 0;
 AD0 : 0;
 AD1 : 0;
 AD2 : 0;
 AD3 : 0;
 AD4 : 0;
 AD5 : 0;
 AD6 : 0;
 AD7 : 0;
 AD8 : 0;
 AD9 : 0;
 ADA : 0;
 ADB : 0;
 ADC : 0;
 ADD : 0;
 ADE : 0;
 ADF : 0;
 AE0 : 0;
 AE1 : 0;
 AE2 : 0;
 AE3 : 0;
 AE4 : 0;
 AE5 : 0;
 AE6 : 0;
 AE7 : 0;
 AE8 : 0;
 AE9 : 0;
 AEA : 0;
 AEB : 0;
 AEC : 0;
 AED : 0;
 AEE : 0;
 AEF : 0;
 AF0 : 0;
 AF1 : 0;
 AF2 : 0;
 AF3 : 0;
 AF4 : 0;
 AF5 : 0;
 AF6 : 0;
 AF7 : 0;
 AF8 : 0;
 AF9 : 0;
 AFA : 0;
 AFB : 0;
 AFC : 0;
 AFD : 0;
 AFE : 0;
 AFF : 0;
 B00 : 0;
 B01 : 0;
 B02 : 0;
 B03 : 0;
 B04 : 0;
 B05 : 0;
 B06 : 0;
 B07 : 0;
 B08 : 0;
 B09 : 0;
 B0A : 0;
 B0B : 0;
 B0C : 0;
 B0D : 0;
 B0E : 0;
 B0F : 0;
 B10 : 0;
 B11 : 0;
 B12 : 0;
 B13 : 0;
 B14 : 0;
 B15 : 0;
 B16 : 0;
 B17 : 0;
 B18 : 0;
 B19 : 0;
 B1A : 0;
 B1B : 0;
 B1C : 0;
 B1D : 0;
 B1E : 0;
 B1F : 0;
 B20 : 0;
 B21 : 0;
 B22 : 0;
 B23 : 0;
 B24 : 0;
 B25 : 0;
 B26 : 0;
 B27 : 0;
 B28 : 0;
 B29 : 0;
 B2A : 0;
 B2B : 0;
 B2C : 0;
 B2D : 0;
 B2E : 0;
 B2F : 0;
 B30 : 0;
 B31 : 0;
 B32 : 0;
 B33 : 0;
 B34 : 0;
 B35 : 0;
 B36 : 0;
 B37 : 0;
 B38 : 0;
 B39 : 0;
 B3A : 0;
 B3B : 0;
 B3C : 0;
 B3D : 0;
 B3E : 0;
 B3F : 0;
 B40 : 0;
 B41 : 0;
 B42 : 0;
 B43 : 0;
 B44 : 0;
 B45 : 0;
 B46 : 0;
 B47 : 0;
 B48 : 0;
 B49 : 0;
 B4A : 0;
 B4B : 0;
 B4C : 0;
 B4D : 0;
 B4E : 0;
 B4F : 0;
 B50 : 0;
 B51 : 0;
 B52 : 0;
 B53 : 0;
 B54 : 0;
 B55 : 0;
 B56 : 0;
 B57 : 0;
 B58 : 0;
 B59 : 0;
 B5A : 0;
 B5B : 0;
 B5C : 0;
 B5D : 0;
 B5E : 0;
 B5F : 0;
 B60 : 0;
 B61 : 0;
 B62 : 0;
 B63 : 0;
 B64 : 0;
 B65 : 0;
 B66 : 0;
 B67 : 0;
 B68 : 0;
 B69 : 0;
 B6A : 0;
 B6B : 0;
 B6C : 0;
 B6D : 0;
 B6E : 0;
 B6F : 0;
 B70 : 0;
 B71 : 0;
 B72 : 0;
 B73 : 0;
 B74 : 0;
 B75 : 0;
 B76 : 0;
 B77 : 0;
 B78 : 0;
 B79 : 0;
 B7A : 0;
 B7B : 0;
 B7C : 0;
 B7D : 0;
 B7E : 0;
 B7F : 0;
 B80 : 0;
 B81 : 0;
 B82 : 0;
 B83 : 0;
 B84 : 0;
 B85 : 0;
 B86 : 0;
 B87 : 0;
 B88 : 0;
 B89 : 0;
 B8A : 0;
 B8B : 0;
 B8C : 0;
 B8D : 0;
 B8E : 0;
 B8F : 0;
 B90 : 0;
 B91 : 0;
 B92 : 0;
 B93 : 0;
 B94 : 0;
 B95 : 0;
 B96 : 0;
 B97 : 0;
 B98 : 0;
 B99 : 0;
 B9A : 0;
 B9B : 0;
 B9C : 0;
 B9D : 0;
 B9E : 0;
 B9F : 0;
 BA0 : 0;
 BA1 : 0;
 BA2 : 0;
 BA3 : 0;
 BA4 : 0;
 BA5 : 0;
 BA6 : 0;
 BA7 : 0;
 BA8 : 0;
 BA9 : 0;
 BAA : 0;
 BAB : 0;
 BAC : 0;
 BAD : 0;
 BAE : 0;
 BAF : 0;
 BB0 : 0;
 BB1 : 0;
 BB2 : 0;
 BB3 : 0;
 BB4 : 0;
 BB5 : 0;
 BB6 : 0;
 BB7 : 0;
 BB8 : 0;
 BB9 : 1;
 BBA : 0;
 BBB : 0;
 BBC : 0;
 BBD : 0;
 BBE : 1;
 BBF : 1;
 BC0 : 0;
 BC1 : 0;
 BC2 : 1;
 BC3 : 0;
 BC4 : 1;
 BC5 : 1;
 BC6 : 0;
 BC7 : 0;
 BC8 : 1;
 BC9 : 0;
 BCA : 0;
 BCB : 0;
 BCC : 0;
 BCD : 0;
 BCE : 0;
 BCF : 1;
 BD0 : 0;
 BD1 : 0;
 BD2 : 0;
 BD3 : 0;
 BD4 : 1;
 BD5 : 0;
 BD6 : 0;
 BD7 : 1;
 BD8 : 0;
 BD9 : 0;
 BDA : 1;
 BDB : 1;
 BDC : 0;
 BDD : 1;
 BDE : 0;
 BDF : 0;
 BE0 : 0;
 BE1 : 1;
 BE2 : 0;
 BE3 : 0;
 BE4 : 0;
 BE5 : 0;
 BE6 : 1;
 BE7 : 1;
 BE8 : 0;
 BE9 : 0;
 BEA : 0;
 BEB : 1;
 BEC : 0;
 BED : 1;
 BEE : 1;
 BEF : 0;
 BF0 : 0;
 BF1 : 1;
 BF2 : 1;
 BF3 : 0;
 BF4 : 0;
 BF5 : 1;
 BF6 : 0;
 BF7 : 0;
 BF8 : 1;
 BF9 : 1;
 BFA : 0;
 BFB : 1;
 BFC : 0;
 BFD : 0;
 BFE : 1;
 BFF : 1;
 C00 : 1;
 C01 : 1;
 C02 : 1;
 C03 : 0;
 C04 : 0;
 C05 : 1;
 C06 : 0;
 C07 : 0;
 C08 : 1;
 C09 : 1;
 C0A : 0;
 C0B : 1;
 C0C : 0;
 C0D : 0;
 C0E : 1;
 C0F : 1;
 C10 : 0;
 C11 : 0;
 C12 : 0;
 C13 : 0;
 C14 : 0;
 C15 : 0;
 C16 : 1;
 C17 : 1;
 C18 : 0;
 C19 : 0;
 C1A : 1;
 C1B : 0;
 C1C : 0;
 C1D : 1;
 C1E : 1;
 C1F : 0;
 C20 : 0;
 C21 : 1;
 C22 : 1;
 C23 : 1;
 C24 : 1;
 C25 : 0;
 C26 : 1;
 C27 : 0;
 C28 : 1;
 C29 : 1;
 C2A : 0;
 C2B : 1;
 C2C : 1;
 C2D : 0;
 C2E : 1;
 C2F : 0;
 C30 : 0;
 C31 : 0;
 C32 : 0;
 C33 : 0;
 C34 : 0;
 C35 : 1;
 C36 : 1;
 C37 : 0;
 C38 : 1;
 C39 : 0;
 C3A : 0;
 C3B : 1;
 C3C : 1;
 C3D : 0;
 C3E : 1;
 C3F : 1;
 C40 : 0;
 C41 : 1;
 C42 : 1;
 C43 : 0;
 C44 : 0;
 C45 : 1;
 C46 : 0;
 C47 : 0;
 C48 : 0;
 C49 : 1;
 C4A : 1;
 C4B : 1;
 C4C : 0;
 C4D : 1;
 C4E : 0;
 C4F : 1;
 C50 : 0;
 C51 : 1;
 C52 : 1;
 C53 : 0;
 C54 : 0;
 C55 : 1;
 C56 : 1;
 C57 : 1;
 C58 : 1;
 C59 : 1;
 C5A : 0;
 C5B : 0;
 C5C : 1;
 C5D : 1;
 C5E : 0;
 C5F : 1;
 C60 : 0;
 C61 : 0;
 C62 : 1;
 C63 : 1;
 C64 : 1;
 C65 : 1;
 C66 : 1;
 C67 : 1;
 C68 : 0;
 C69 : 1;
 C6A : 1;
 C6B : 0;
 C6C : 1;
 C6D : 1;
 C6E : 0;
 C6F : 1;
 C70 : 0;
 C71 : 0;
 C72 : 1;
 C73 : 1;
 C74 : 0;
 C75 : 0;
 C76 : 0;
 C77 : 0;
 C78 : 1;
 C79 : 0;
 C7A : 1;
 C7B : 1;
 C7C : 1;
 C7D : 0;
 C7E : 1;
 C7F : 1;
 C80 : 0;
 C81 : 0;
 C82 : 0;
 C83 : 0;
 C84 : 0;
 C85 : 1;
 C86 : 1;
 C87 : 1;
 C88 : 1;
 C89 : 0;
 C8A : 1;
 C8B : 0;
 C8C : 1;
 C8D : 1;
 C8E : 0;
 C8F : 0;
 C90 : 1;
 C91 : 0;
 C92 : 0;
 C93 : 0;
 C94 : 0;
 C95 : 0;
 C96 : 0;
 C97 : 0;
 C98 : 0;
 C99 : 1;
 C9A : 1;
 C9B : 0;
 C9C : 1;
 C9D : 0;
 C9E : 0;
 C9F : 0;
 CA0 : 0;
 CA1 : 0;
 CA2 : 1;
 CA3 : 1;
 CA4 : 0;
 CA5 : 1;
 CA6 : 1;
 CA7 : 0;
 CA8 : 0;
 CA9 : 1;
 CAA : 0;
 CAB : 0;
 CAC : 0;
 CAD : 1;
 CAE : 1;
 CAF : 1;
 CB0 : 1;
 CB1 : 1;
 CB2 : 0;
 CB3 : 1;
 CB4 : 0;
 CB5 : 1;
 CB6 : 1;
 CB7 : 0;
 CB8 : 0;
 CB9 : 1;
 CBA : 1;
 CBB : 1;
 CBC : 1;
 CBD : 1;
 CBE : 1;
 CBF : 0;
 CC0 : 1;
 CC1 : 1;
 CC2 : 0;
 CC3 : 1;
 CC4 : 0;
 CC5 : 0;
 CC6 : 0;
 CC7 : 1;
 CC8 : 1;
 CC9 : 1;
 CCA : 1;
 CCB : 0;
 CCC : 0;
 CCD : 0;
 CCE : 0;
 CCF : 0;
 CD0 : 1;
 CD1 : 1;
 CD2 : 0;
 CD3 : 1;
 CD4 : 0;
 CD5 : 0;
 CD6 : 1;
 CD7 : 0;
 CD8 : 0;
 CD9 : 0;
 CDA : 0;
 CDB : 0;
 CDC : 0;
 CDD : 0;
 CDE : 0;
 CDF : 0;
 CE0 : 0;
 CE1 : 0;
 CE2 : 1;
 CE3 : 1;
 CE4 : 1;
 CE5 : 1;
 CE6 : 1;
 CE7 : 0;
 CE8 : 0;
 CE9 : 1;
 CEA : 1;
 CEB : 1;
 CEC : 1;
 CED : 0;
 CEE : 1;
 CEF : 0;
 CF0 : 1;
 CF1 : 1;
 CF2 : 0;
 CF3 : 0;
 CF4 : 1;
 CF5 : 0;
 CF6 : 0;
 CF7 : 0;
 CF8 : 0;
 CF9 : 0;
 CFA : 0;
 CFB : 0;
 CFC : 0;
 CFD : 1;
 CFE : 1;
 CFF : 0;
 D00 : 1;
 D01 : 0;
 D02 : 0;
 D03 : 1;
 D04 : 0;
 D05 : 0;
 D06 : 1;
 D07 : 1;
 D08 : 0;
 D09 : 1;
 D0A : 1;
 D0B : 0;
 D0C : 0;
 D0D : 1;
 D0E : 0;
 D0F : 1;
 D10 : 0;
 D11 : 1;
 D12 : 1;
 D13 : 1;
 D14 : 1;
 D15 : 1;
 D16 : 1;
 D17 : 1;
 D18 : 1;
 D19 : 1;
 D1A : 1;
 D1B : 1;
 D1C : 0;
 D1D : 1;
 D1E : 2;
 D1F : 1;
 D20 : 1;
 D21 : 2;
 D22 : 1;
 D23 : 1;
 D24 : 1;
 D25 : 2;
 D26 : 1;
 D27 : 2;
 D28 : 0;
 D29 : 1;
 D2A : 1;
 D2B : 1;
 D2C : 1;
 D2D : 1;
 D2E : 1;
 D2F : 1;
 D30 : 0;
 D31 : 1;
 D32 : 1;
 D33 : 0;
 D34 : 1;
 D35 : 1;
 D36 : 0;
 D37 : 1;
 D38 : 0;
 D39 : 0;
 D3A : 1;
 D3B : 1;
 D3C : 0;
 D3D : 0;
 D3E : 1;
 D3F : 0;
 D40 : 1;
 D41 : 1;
 D42 : 1;
 D43 : 1;
 D44 : 1;
 D45 : 0;
 D46 : 1;
 D47 : 1;
 D48 : 2;
 D49 : 2;
 D4A : 1;
 D4B : 1;
 D4C : 1;
 D4D : 2;
 D4E : 1;
 D4F : 1;
 D50 : 1;
 D51 : 0;
 D52 : 1;
 D53 : 0;
 D54 : 1;
 D55 : 1;
 D56 : 0;
 D57 : 1;
 D58 : 1;
 D59 : 0;
 D5A : 1;
 D5B : 0;
 D5C : 1;
 D5D : 0;
 D5E : 0;
 D5F : 1;
 D60 : 0;
 D61 : 1;
 D62 : 1;
 D63 : 0;
 D64 : 1;
 D65 : 0;
 D66 : 0;
 D67 : 1;
 D68 : 1;
 D69 : 0;
 D6A : 1;
 D6B : 1;
 D6C : 1;
 D6D : 1;
 D6E : 1;
 D6F : 0;
 D70 : 0;
 D71 : 1;
 D72 : 0;
 D73 : 1;
 D74 : 0;
 D75 : 1;
 D76 : 1;
 D77 : 1;
 D78 : 1;
 D79 : 1;
 D7A : 1;
 D7B : 1;
 D7C : 1;
 D7D : 1;
 D7E : 1;
 D7F : 1;
 D80 : 0;
 D81 : 1;
 D82 : 1;
 D83 : 1;
 D84 : 1;
 D85 : 2;
 D86 : 1;
 D87 : 1;
 D88 : 1;
 D89 : 1;
 D8A : 1;
 D8B : 1;
 D8C : 0;
 D8D : 1;
 D8E : 2;
 D8F : 2;
 D90 : 2;
 D91 : 2;
 D92 : 2;
 D93 : 1;
 D94 : 1;
 D95 : 1;
 D96 : 1;
 D97 : 0;
 D98 : 2;
 D99 : 2;
 D9A : 1;
 D9B : 2;
 D9C : 1;
 D9D : 1;
 D9E : 1;
 D9F : 2;
 DA0 : 1;
 DA1 : 0;
 DA2 : 1;
 DA3 : 1;
 DA4 : 1;
 DA5 : 0;
 DA6 : 2;
 DA7 : 2;
 DA8 : 1;
 DA9 : 1;
 DAA : 2;
 DAB : 2;
 DAC : 2;
 DAD : 2;
 DAE : 2;
 DAF : 1;
 DB0 : 1;
 DB1 : 3;
 DB2 : 1;
 DB3 : 1;
 DB4 : 1;
 DB5 : 0;
 DB6 : 1;
 DB7 : 0;
 DB8 : 1;
 DB9 : 1;
 DBA : 0;
 DBB : 0;
 DBC : 1;
 DBD : 0;
 DBE : 0;
 DBF : 0;
 DC0 : 0;
 DC1 : 0;
 DC2 : 0;
 DC3 : 0;
 DC4 : 0;
 DC5 : 1;
 DC6 : 1;
 DC7 : 0;
 DC8 : 1;
 DC9 : 0;
 DCA : 0;
 DCB : 1;
 DCC : 1;
 DCD : 0;
 DCE : 1;
 DCF : 1;
 DD0 : 0;
 DD1 : 1;
 DD2 : 1;
 DD3 : 0;
 DD4 : 0;
 DD5 : 1;
 DD6 : 0;
 DD7 : 0;
 DD8 : 0;
 DD9 : 0;
 DDA : 1;
 DDB : 1;
 DDC : 0;
 DDD : 1;
 DDE : 0;
 DDF : 1;
 DE0 : 0;
 DE1 : 1;
 DE2 : 1;
 DE3 : 0;
 DE4 : 0;
 DE5 : 1;
 DE6 : 1;
 DE7 : 1;
 DE8 : 1;
 DE9 : 1;
 DEA : 0;
 DEB : 0;
 DEC : 1;
 DED : 1;
 DEE : 0;
 DEF : 1;
 DF0 : 0;
 DF1 : 0;
 DF2 : 2;
 DF3 : 2;
 DF4 : 2;
 DF5 : 2;
 DF6 : 2;
 DF7 : 1;
 DF8 : 1;
 DF9 : 1;
 DFA : 1;
 DFB : 0;
 DFC : 2;
 DFD : 2;
 DFE : 1;
 DFF : 2;
 E00 : 1;
 E01 : 1;
 E02 : 1;
 E03 : 2;
 E04 : 1;
 E05 : 1;
 E06 : 2;
 E07 : 1;
 E08 : 2;
 E09 : 0;
 E0A : 2;
 E0B : 2;
 E0C : 2;
 E0D : 1;
 E0E : 2;
 E0F : 2;
 E10 : 1;
 E11 : 1;
 E12 : 1;
 E13 : 1;
 E14 : 0;
 E15 : 1;
 E16 : 0;
 E17 : 0;
 E18 : 1;
 E19 : 0;
 E1A : 0;
 E1B : 0;
 E1C : 1;
 E1D : 1;
 E1E : 0;
 E1F : 0;
 E20 : 1;
 E21 : 0;
 E22 : 0;
 E23 : 0;
 E24 : 0;
 E25 : 0;
 E26 : 0;
 E27 : 0;
 E28 : 0;
 E29 : 0;
 E2A : 0;
 E2B : 0;
 E2C : 0;
 E2D : 0;
 E2E : 0;
 E2F : 0;
 E30 : 0;
 E31 : 0;
 E32 : 1;
 E33 : 1;
 E34 : 0;
 E35 : 1;
 E36 : 0;
 E37 : 0;
 E38 : 0;
 E39 : 1;
 E3A : 0;
 E3B : 0;
 E3C : 0;
 E3D : 0;
 E3E : 1;
 E3F : 1;
 E40 : 0;
 E41 : 1;
 E42 : 0;
 E43 : 0;
 E44 : 0;
 E45 : 0;
 E46 : 0;
 E47 : 0;
 E48 : 0;
 E49 : 0;
 E4A : 1;
 E4B : 0;
 E4C : 0;
 E4D : 1;
 E4E : 0;
 E4F : 0;
 E50 : 0;
 E51 : 1;
 E52 : 0;
 E53 : 0;
 E54 : 0;
 E55 : 0;
 E56 : 1;
 E57 : 1;
 E58 : 1;
 E59 : 1;
 E5A : 1;
 E5B : 1;
 E5C : 0;
 E5D : 1;
 E5E : 1;
 E5F : 0;
 E60 : 1;
 E61 : 1;
 E62 : 0;
 E63 : 1;
 E64 : 0;
 E65 : 0;
 E66 : 0;
 E67 : 1;
 E68 : 0;
 E69 : 0;
 E6A : 1;
 E6B : 0;
 E6C : 1;
 E6D : 0;
 E6E : 1;
 E6F : 1;
 E70 : 1;
 E71 : 1;
 E72 : 1;
 E73 : 1;
 E74 : 0;
 E75 : 0;
 E76 : 0;
 E77 : 0;
 E78 : 0;
 E79 : 0;
 E7A : 0;
 E7B : 0;
 E7C : 0;
 E7D : 0;
 E7E : 0;
 E7F : 0;
 E80 : 0;
 E81 : 0;
 E82 : 0;
 E83 : 0;
 E84 : 0;
 E85 : 0;
 E86 : 0;
 E87 : 0;
 E88 : 0;
 E89 : 0;
 E8A : 0;
 E8B : 0;
 E8C : 0;
 E8D : 0;
 E8E : 0;
 E8F : 0;
 E90 : 0;
 E91 : 0;
 E92 : 0;
 E93 : 0;
 E94 : 0;
 E95 : 0;
 E96 : 0;
 E97 : 0;
 E98 : 0;
 E99 : 0;
 E9A : 0;
 E9B : 0;
 E9C : 0;
 E9D : 0;
 E9E : 0;
 E9F : 0;
 EA0 : 0;
 EA1 : 0;
 EA2 : 0;
 EA3 : 0;
 EA4 : 0;
 EA5 : 0;
 EA6 : 0;
 EA7 : 0;
 EA8 : 0;
 EA9 : 0;
 EAA : 0;
 EAB : 0;
 EAC : 0;
 EAD : 0;
 EAE : 0;
 EAF : 0;
 EB0 : 0;
 EB1 : 0;
 EB2 : 0;
 EB3 : 0;
 EB4 : 0;
 EB5 : 0;
 EB6 : 0;
 EB7 : 0;
 EB8 : 0;
 EB9 : 0;
 EBA : 0;
 EBB : 0;
 EBC : 0;
 EBD : 0;
 EBE : 0;
 EBF : 0;
 EC0 : 0;
 EC1 : 0;
 EC2 : 0;
 EC3 : 0;
 EC4 : 0;
 EC5 : 0;
 EC6 : 0;
 EC7 : 0;
 EC8 : 0;
 EC9 : 0;
 ECA : 0;
 ECB : 0;
 ECC : 0;
 ECD : 0;
 ECE : 0;
 ECF : 0;
 ED0 : 0;
 ED1 : 0;
 ED2 : 0;
 ED3 : 0;
 ED4 : 0;
 ED5 : 0;
 ED6 : 0;
 ED7 : 0;
 ED8 : 0;
 ED9 : 0;
 EDA : 0;
 EDB : 0;
 EDC : 0;
 EDD : 0;
 EDE : 0;
 EDF : 0;
 EE0 : 0;
 EE1 : 0;
 EE2 : 0;
 EE3 : 0;
 EE4 : 0;
 EE5 : 0;
 EE6 : 0;
 EE7 : 0;
 EE8 : 0;
 EE9 : 0;
 EEA : 0;
 EEB : 0;
 EEC : 0;
 EED : 0;
 EEE : 0;
 EEF : 0;
 EF0 : 0;
 EF1 : 0;
 EF2 : 0;
 EF3 : 0;
 EF4 : 0;
 EF5 : 0;
 EF6 : 0;
 EF7 : 0;
 EF8 : 0;
 EF9 : 0;
 EFA : 0;
 EFB : 0;
 EFC : 0;
 EFD : 0;
 EFE : 0;
 EFF : 0;
 F00 : 0;
 F01 : 0;
 F02 : 0;
 F03 : 0;
 F04 : 0;
 F05 : 0;
 F06 : 0;
 F07 : 0;
 F08 : 0;
 F09 : 0;
 F0A : 0;
 F0B : 0;
 F0C : 0;
 F0D : 0;
 F0E : 0;
 F0F : 0;
 F10 : 0;
 F11 : 0;
 F12 : 0;
 F13 : 0;
 F14 : 0;
 F15 : 0;
 F16 : 0;
 F17 : 0;
 F18 : 0;
 F19 : 0;
 F1A : 0;
 F1B : 0;
 F1C : 0;
 F1D : 0;
 F1E : 0;
 F1F : 0;
 F20 : 0;
 F21 : 0;
 F22 : 0;
 F23 : 0;
 F24 : 0;
 F25 : 0;
 F26 : 0;
 F27 : 0;
 F28 : 0;
 F29 : 0;
 F2A : 0;
 F2B : 0;
 F2C : 0;
 F2D : 0;
 F2E : 0;
 F2F : 0;
 F30 : 0;
 F31 : 0;
 F32 : 0;
 F33 : 0;
 F34 : 0;
 F35 : 0;
 F36 : 0;
 F37 : 0;
 F38 : 0;
 F39 : 0;
 F3A : 0;
 F3B : 0;
 F3C : 0;
 F3D : 0;
 F3E : 0;
 F3F : 0;
 F40 : 0;
 F41 : 0;
 F42 : 0;
 F43 : 0;
 F44 : 0;
 F45 : 0;
 F46 : 0;
 F47 : 0;
 F48 : 0;
 F49 : 0;
 F4A : 0;
 F4B : 0;
 F4C : 0;
 F4D : 0;
 F4E : 0;
 F4F : 0;
 F50 : 0;
 F51 : 0;
 F52 : 0;
 F53 : 0;
 F54 : 0;
 F55 : 0;
 F56 : 0;
 F57 : 0;
 F58 : 0;
 F59 : 0;
 F5A : 0;
 F5B : 0;
 F5C : 0;
 F5D : 0;
 F5E : 0;
 F5F : 0;
 F60 : 0;
 F61 : 0;
 F62 : 0;
 F63 : 0;
 F64 : 0;
 F65 : 0;
 F66 : 0;
 F67 : 0;
 F68 : 0;
 F69 : 0;
 F6A : 0;
 F6B : 0;
 F6C : 0;
 F6D : 0;
 F6E : 0;
 F6F : 0;
 F70 : 0;
 F71 : 0;
 F72 : 0;
 F73 : 0;
 F74 : 0;
 F75 : 0;
 F76 : 0;
 F77 : 0;
 F78 : 0;
 F79 : 0;
 F7A : 0;
 F7B : 0;
 F7C : 0;
 F7D : 0;
 F7E : 0;
 F7F : 0;
 F80 : 0;
 F81 : 0;
 F82 : 0;
 F83 : 0;
 F84 : 0;
 F85 : 0;
 F86 : 0;
 F87 : 0;
 F88 : 0;
 F89 : 0;
 F8A : 0;
 F8B : 0;
 F8C : 0;
 F8D : 0;
 F8E : 0;
 F8F : 0;
 F90 : 0;
 F91 : 0;
 F92 : 0;
 F93 : 0;
 F94 : 0;
 F95 : 0;
 F96 : 0;
 F97 : 0;
 F98 : 0;
 F99 : 0;
 F9A : 0;
 F9B : 0;
 F9C : 0;
 F9D : 0;
 F9E : 0;
 F9F : 0;
 FA0 : 1;
 FA1 : 1;
 FA2 : 1;
 FA3 : 1;
 FA4 : 0;
 FA5 : 1;
 FA6 : 1;
 FA7 : 1;
 FA8 : 1;
 FA9 : 0;
 FAA : 1;
 FAB : 0;
 FAC : 1;
 FAD : 1;
 FAE : 0;
 FAF : 0;
 FB0 : 1;
 FB1 : 0;
 FB2 : 0;
 FB3 : 0;
 FB4 : 0;
 FB5 : 0;
 FB6 : 0;
 FB7 : 0;
 FB8 : 0;
 FB9 : 1;
 FBA : 0;
 FBB : 0;
 FBC : 1;
 FBD : 0;
 FBE : 0;
 FBF : 0;
 FC0 : 0;
 FC1 : 0;
 FC2 : 1;
 FC3 : 1;
 FC4 : 0;
 FC5 : 1;
 FC6 : 1;
 FC7 : 0;
 FC8 : 0;
 FC9 : 1;
 FCA : 0;
 FCB : 0;
 FCC : 0;
 FCD : 0;
 FCE : 1;
 FCF : 1;
 FD0 : 0;
 FD1 : 1;
 FD2 : 0;
 FD3 : 0;
 FD4 : 0;
 FD5 : 0;
 FD6 : 0;
 FD7 : 0;
 FD8 : 0;
 FD9 : 0;
 FDA : 1;
 FDB : 0;
 FDC : 0;
 FDD : 1;
 FDE : 0;
 FDF : 0;
 FE0 : 0;
 FE1 : 1;
 FE2 : 0;
 FE3 : 1;
 FE4 : 0;
 FE5 : 0;
 FE6 : 1;
 FE7 : 1;
 FE8 : 1;
 FE9 : 1;
 FEA : 1;
 FEB : 1;
 FEC : 1;
 FED : 1;
 FEE : 1;
 FEF : 0;
 FF0 : 1;
 FF1 : 1;
 FF2 : 0;
 FF3 : 1;
 FF4 : 0;
 FF5 : 0;
 FF6 : 0;
 FF7 : 1;
 FF8 : 0;
 FF9 : 0;
 FFA : 1;
 FFB : 1;
 FFC : 1;
 FFD : 0;
 FFE : 1;
 FFF : 1;
1000 : 1;
1001 : 1;
1002 : 1;
1003 : 1;
1004 : 2;
1005 : 2;
1006 : 2;
1007 : 1;
1008 : 1;
1009 : 3;
100A : 1;
100B : 1;
100C : 1;
100D : 0;
100E : 1;
100F : 0;
1010 : 1;
1011 : 1;
1012 : 0;
1013 : 1;
1014 : 1;
1015 : 0;
1016 : 1;
1017 : 0;
1018 : 0;
1019 : 0;
101A : 0;
101B : 1;
101C : 0;
101D : 1;
101E : 1;
101F : 0;
1020 : 1;
1021 : 0;
1022 : 0;
1023 : 1;
1024 : 1;
1025 : 0;
1026 : 1;
1027 : 1;
1028 : 0;
1029 : 1;
102A : 1;
102B : 0;
102C : 0;
102D : 1;
102E : 0;
102F : 0;
1030 : 0;
1031 : 0;
1032 : 1;
1033 : 1;
1034 : 0;
1035 : 1;
1036 : 0;
1037 : 1;
1038 : 0;
1039 : 1;
103A : 1;
103B : 0;
103C : 0;
103D : 1;
103E : 1;
103F : 1;
1040 : 1;
1041 : 1;
1042 : 1;
1043 : 0;
1044 : 1;
1045 : 1;
1046 : 0;
1047 : 1;
1048 : 0;
1049 : 0;
104A : 2;
104B : 2;
104C : 2;
104D : 2;
104E : 2;
104F : 1;
1050 : 1;
1051 : 2;
1052 : 1;
1053 : 0;
1054 : 2;
1055 : 2;
1056 : 1;
1057 : 2;
1058 : 1;
1059 : 1;
105A : 1;
105B : 2;
105C : 1;
105D : 1;
105E : 2;
105F : 1;
1060 : 2;
1061 : 0;
1062 : 2;
1063 : 2;
1064 : 2;
1065 : 1;
1066 : 2;
1067 : 2;
1068 : 1;
1069 : 2;
106A : 1;
106B : 1;
106C : 1;
106D : 2;
106E : 1;
106F : 1;
1070 : 1;
1071 : 0;
1072 : 1;
1073 : 0;
1074 : 1;
1075 : 1;
1076 : 0;
1077 : 0;
1078 : 1;
1079 : 0;
107A : 0;
107B : 0;
107C : 1;
107D : 0;
107E : 0;
107F : 1;
1080 : 0;
1081 : 1;
1082 : 1;
1083 : 0;
1084 : 1;
1085 : 0;
1086 : 0;
1087 : 1;
1088 : 1;
1089 : 0;
108A : 1;
108B : 1;
108C : 1;
108D : 1;
108E : 1;
108F : 0;
1090 : 0;
1091 : 1;
1092 : 0;
1093 : 1;
1094 : 0;
1095 : 1;
1096 : 1;
1097 : 1;
1098 : 1;
1099 : 1;
109A : 1;
109B : 1;
109C : 1;
109D : 1;
109E : 1;
109F : 1;
10A0 : 0;
10A1 : 1;
10A2 : 1;
10A3 : 1;
10A4 : 1;
10A5 : 2;
10A6 : 1;
10A7 : 1;
10A8 : 1;
10A9 : 2;
10AA : 1;
10AB : 2;
10AC : 0;
10AD : 1;
10AE : 1;
10AF : 2;
10B0 : 2;
10B1 : 1;
10B2 : 2;
10B3 : 1;
10B4 : 1;
10B5 : 1;
10B6 : 1;
10B7 : 0;
10B8 : 2;
10B9 : 2;
10BA : 1;
10BB : 2;
10BC : 1;
10BD : 1;
10BE : 1;
10BF : 2;
10C0 : 1;
10C1 : 0;
10C2 : 1;
10C3 : 1;
10C4 : 1;
10C5 : 0;
10C6 : 2;
10C7 : 2;
10C8 : 1;
10C9 : 1;
10CA : 2;
10CB : 2;
10CC : 1;
10CD : 1;
10CE : 1;
10CF : 0;
10D0 : 0;
10D1 : 1;
10D2 : 1;
10D3 : 1;
10D4 : 1;
10D5 : 0;
10D6 : 1;
10D7 : 0;
10D8 : 1;
10D9 : 1;
10DA : 0;
10DB : 0;
10DC : 1;
10DD : 0;
10DE : 0;
10DF : 0;
10E0 : 0;
10E1 : 0;
10E2 : 0;
10E3 : 0;
10E4 : 0;
10E5 : 1;
10E6 : 1;
10E7 : 0;
10E8 : 1;
10E9 : 0;
10EA : 0;
10EB : 0;
10EC : 0;
10ED : 0;
10EE : 1;
10EF : 1;
10F0 : 0;
10F1 : 1;
10F2 : 1;
10F3 : 0;
10F4 : 0;
10F5 : 1;
10F6 : 0;
10F7 : 1;
10F8 : 0;
10F9 : 1;
10FA : 1;
10FB : 1;
10FC : 1;
10FD : 1;
10FE : 1;
10FF : 1;
1100 : 1;
1101 : 1;
1102 : 1;
1103 : 1;
1104 : 0;
1105 : 1;
1106 : 1;
1107 : 1;
1108 : 1;
1109 : 2;
110A : 1;
110B : 1;
110C : 1;
110D : 1;
110E : 1;
110F : 2;
1110 : 0;
1111 : 1;
1112 : 1;
1113 : 1;
1114 : 1;
1115 : 1;
1116 : 1;
1117 : 1;
1118 : 0;
1119 : 1;
111A : 1;
111B : 0;
111C : 1;
111D : 1;
111E : 0;
111F : 1;
1120 : 0;
1121 : 0;
1122 : 1;
1123 : 1;
1124 : 0;
1125 : 0;
1126 : 0;
1127 : 0;
1128 : 1;
1129 : 1;
112A : 1;
112B : 1;
112C : 0;
112D : 0;
112E : 1;
112F : 1;
1130 : 0;
1131 : 0;
1132 : 0;
1133 : 0;
1134 : 0;
1135 : 1;
1136 : 1;
1137 : 1;
1138 : 1;
1139 : 0;
113A : 1;
113B : 0;
113C : 1;
113D : 1;
113E : 0;
113F : 0;
1140 : 1;
1141 : 0;
1142 : 0;
1143 : 0;
1144 : 0;
1145 : 0;
1146 : 0;
1147 : 0;
1148 : 0;
1149 : 1;
114A : 1;
114B : 0;
114C : 1;
114D : 0;
114E : 0;
114F : 1;
1150 : 1;
1151 : 0;
1152 : 1;
1153 : 1;
1154 : 0;
1155 : 1;
1156 : 1;
1157 : 0;
1158 : 0;
1159 : 1;
115A : 0;
115B : 0;
115C : 0;
115D : 1;
115E : 1;
115F : 1;
1160 : 0;
1161 : 1;
1162 : 0;
1163 : 1;
1164 : 0;
1165 : 1;
1166 : 1;
1167 : 0;
1168 : 0;
1169 : 1;
116A : 1;
116B : 1;
116C : 1;
116D : 1;
116E : 1;
116F : 0;
1170 : 1;
1171 : 1;
1172 : 0;
1173 : 1;
1174 : 0;
1175 : 0;
1176 : 1;
1177 : 1;
1178 : 1;
1179 : 1;
117A : 1;
117B : 1;
117C : 0;
117D : 0;
117E : 0;
117F : 0;
1180 : 1;
1181 : 1;
1182 : 0;
1183 : 1;
1184 : 0;
1185 : 0;
1186 : 1;
1187 : 1;
1188 : 0;
1189 : 0;
118A : 0;
118B : 0;
118C : 0;
118D : 0;
118E : 1;
118F : 1;
1190 : 0;
1191 : 0;
1192 : 1;
1193 : 1;
1194 : 0;
1195 : 1;
1196 : 0;
1197 : 0;
1198 : 0;
1199 : 1;
119A : 1;
119B : 1;
119C : 1;
119D : 0;
119E : 1;
119F : 0;
11A0 : 1;
11A1 : 1;
11A2 : 1;
11A3 : 1;
11A4 : 1;
11A5 : 0;
11A6 : 1;
11A7 : 0;
11A8 : 0;
11A9 : 0;
11AA : 0;
11AB : 0;
11AC : 0;
11AD : 1;
11AE : 1;
11AF : 0;
11B0 : 1;
11B1 : 0;
11B2 : 0;
11B3 : 1;
11B4 : 1;
11B5 : 0;
11B6 : 1;
11B7 : 1;
11B8 : 0;
11B9 : 1;
11BA : 1;
11BB : 0;
11BC : 0;
11BD : 1;
11BE : 0;
11BF : 0;
11C0 : 0;
11C1 : 0;
11C2 : 1;
11C3 : 1;
11C4 : 0;
11C5 : 1;
11C6 : 0;
11C7 : 1;
11C8 : 0;
11C9 : 1;
11CA : 1;
11CB : 0;
11CC : 0;
11CD : 1;
11CE : 1;
11CF : 1;
11D0 : 1;
11D1 : 1;
11D2 : 0;
11D3 : 0;
11D4 : 1;
11D5 : 1;
11D6 : 0;
11D7 : 1;
11D8 : 0;
11D9 : 0;
11DA : 1;
11DB : 1;
11DC : 1;
11DD : 1;
11DE : 1;
11DF : 1;
11E0 : 0;
11E1 : 1;
11E2 : 1;
11E3 : 0;
11E4 : 1;
11E5 : 1;
11E6 : 0;
11E7 : 1;
11E8 : 0;
11E9 : 0;
11EA : 1;
11EB : 1;
11EC : 0;
11ED : 0;
11EE : 0;
11EF : 0;
11F0 : 0;
11F1 : 0;
11F2 : 1;
11F3 : 1;
11F4 : 0;
11F5 : 0;
11F6 : 1;
11F7 : 1;
11F8 : 0;
11F9 : 0;
11FA : 0;
11FB : 0;
11FC : 0;
11FD : 0;
11FE : 1;
11FF : 1;
1200 : 0;
1201 : 0;
1202 : 1;
1203 : 0;
1204 : 1;
1205 : 1;
1206 : 0;
1207 : 0;
1208 : 1;
1209 : 0;
120A : 0;
120B : 0;
120C : 0;
120D : 0;
120E : 0;
120F : 0;
1210 : 0;
1211 : 0;
1212 : 0;
1213 : 0;
1214 : 1;
1215 : 0;
1216 : 0;
1217 : 0;
1218 : 0;
1219 : 0;
121A : 1;
121B : 0;
121C : 0;
121D : 1;
121E : 0;
121F : 0;
1220 : 0;
1221 : 1;
1222 : 0;
1223 : 0;
1224 : 0;
1225 : 0;
1226 : 1;
1227 : 1;
1228 : 0;
1229 : 0;
122A : 0;
122B : 0;
122C : 0;
122D : 1;
122E : 1;
122F : 0;
1230 : 0;
1231 : 1;
1232 : 1;
1233 : 0;
1234 : 0;
1235 : 1;
1236 : 0;
1237 : 0;
1238 : 1;
1239 : 1;
123A : 0;
123B : 1;
123C : 0;
123D : 0;
123E : 1;
123F : 1;
1240 : 0;
1241 : 1;
1242 : 1;
1243 : 0;
1244 : 0;
1245 : 0;
1246 : 0;
1247 : 0;
1248 : 1;
1249 : 1;
124A : 0;
124B : 1;
124C : 0;
124D : 0;
124E : 1;
124F : 1;
1250 : 0;
1251 : 0;
1252 : 0;
1253 : 0;
1254 : 0;
1255 : 0;
1256 : 1;
1257 : 1;
1258 : 0;
1259 : 0;
125A : 1;
125B : 0;
125C : 0;
125D : 0;
125E : 0;
125F : 0;
1260 : 0;
1261 : 0;
1262 : 0;
1263 : 0;
1264 : 0;
1265 : 0;
1266 : 0;
1267 : 0;
1268 : 0;
1269 : 0;
126A : 0;
126B : 0;
126C : 0;
126D : 0;
126E : 0;
126F : 0;
1270 : 0;
1271 : 0;
1272 : 0;
1273 : 0;
1274 : 0;
1275 : 0;
1276 : 0;
1277 : 0;
1278 : 0;
1279 : 0;
127A : 0;
127B : 0;
127C : 0;
127D : 0;
127E : 0;
127F : 0;
1280 : 0;
1281 : 0;
1282 : 0;
1283 : 0;
1284 : 0;
1285 : 0;
1286 : 0;
1287 : 0;
1288 : 0;
1289 : 0;
128A : 0;
128B : 0;
128C : 0;
128D : 0;
128E : 0;
128F : 0;
1290 : 0;
1291 : 0;
1292 : 0;
1293 : 0;
1294 : 0;
1295 : 0;
1296 : 0;
1297 : 0;
1298 : 0;
1299 : 0;
129A : 0;
129B : 0;
129C : 0;
129D : 0;
129E : 0;
129F : 0;
12A0 : 0;
12A1 : 0;
12A2 : 0;
12A3 : 0;
12A4 : 0;
12A5 : 0;
12A6 : 0;
12A7 : 0;
12A8 : 0;
12A9 : 0;
12AA : 0;
12AB : 0;
12AC : 0;
12AD : 0;
12AE : 0;
12AF : 0;
12B0 : 0;
12B1 : 0;
12B2 : 0;
12B3 : 0;
12B4 : 0;
12B5 : 0;
12B6 : 0;
12B7 : 0;
12B8 : 0;
12B9 : 0;
12BA : 0;
12BB : 0;
12BC : 0;
12BD : 0;
12BE : 0;
12BF : 0;
12C0 : 0;
12C1 : 0;
12C2 : 0;
12C3 : 0;
12C4 : 0;
12C5 : 0;
12C6 : 0;
12C7 : 0;
12C8 : 0;
12C9 : 0;
12CA : 0;
12CB : 0;
12CC : 0;
12CD : 0;
12CE : 0;
12CF : 0;
12D0 : 0;
12D1 : 0;
12D2 : 0;
12D3 : 0;
12D4 : 0;
12D5 : 0;
12D6 : 0;
12D7 : 0;
12D8 : 0;
12D9 : 0;
12DA : 0;
12DB : 0;
12DC : 0;
12DD : 0;
12DE : 0;
12DF : 0;
12E0 : 0;
12E1 : 0;
12E2 : 0;
12E3 : 0;
12E4 : 0;
12E5 : 0;
12E6 : 0;
12E7 : 0;
12E8 : 0;
12E9 : 0;
12EA : 0;
12EB : 0;
12EC : 0;
12ED : 0;
12EE : 0;
12EF : 0;
12F0 : 0;
12F1 : 0;
12F2 : 0;
12F3 : 0;
12F4 : 0;
12F5 : 0;
12F6 : 0;
12F7 : 0;
12F8 : 0;
12F9 : 0;
12FA : 0;
12FB : 0;
12FC : 0;
12FD : 0;
12FE : 0;
12FF : 0;
1300 : 0;
1301 : 0;
1302 : 0;
1303 : 0;
1304 : 0;
1305 : 0;
1306 : 0;
1307 : 0;
1308 : 0;
1309 : 0;
130A : 0;
130B : 0;
130C : 0;
130D : 0;
130E : 0;
130F : 0;
1310 : 0;
1311 : 0;
1312 : 0;
1313 : 0;
1314 : 0;
1315 : 0;
1316 : 0;
1317 : 0;
1318 : 0;
1319 : 0;
131A : 0;
131B : 0;
131C : 0;
131D : 0;
131E : 0;
131F : 0;
1320 : 0;
1321 : 0;
1322 : 0;
1323 : 0;
1324 : 0;
1325 : 0;
1326 : 0;
1327 : 0;
1328 : 0;
1329 : 0;
132A : 0;
132B : 0;
132C : 0;
132D : 0;
132E : 0;
132F : 0;
1330 : 0;
1331 : 0;
1332 : 0;
1333 : 0;
1334 : 0;
1335 : 0;
1336 : 0;
1337 : 0;
1338 : 0;
1339 : 0;
133A : 0;
133B : 0;
133C : 0;
133D : 0;
133E : 0;
133F : 0;
1340 : 0;
1341 : 0;
1342 : 0;
1343 : 0;
1344 : 0;
1345 : 0;
1346 : 0;
1347 : 0;
1348 : 0;
1349 : 0;
134A : 0;
134B : 0;
134C : 0;
134D : 0;
134E : 0;
134F : 0;
1350 : 0;
1351 : 0;
1352 : 0;
1353 : 0;
1354 : 0;
1355 : 0;
1356 : 0;
1357 : 0;
1358 : 0;
1359 : 0;
135A : 0;
135B : 0;
135C : 0;
135D : 0;
135E : 0;
135F : 0;
1360 : 0;
1361 : 0;
1362 : 0;
1363 : 0;
1364 : 0;
1365 : 0;
1366 : 0;
1367 : 0;
1368 : 0;
1369 : 0;
136A : 0;
136B : 0;
136C : 0;
136D : 0;
136E : 0;
136F : 0;
1370 : 0;
1371 : 0;
1372 : 0;
1373 : 0;
1374 : 0;
1375 : 0;
1376 : 0;
1377 : 0;
1378 : 0;
1379 : 0;
137A : 0;
137B : 0;
137C : 0;
137D : 0;
137E : 0;
137F : 0;
1380 : 0;
1381 : 0;
1382 : 0;
1383 : 0;
1384 : 0;
1385 : 0;
1386 : 0;
1387 : 0;
1388 : 0;
1389 : 1;
138A : 1;
138B : 0;
138C : 0;
138D : 1;
138E : 1;
138F : 1;
1390 : 1;
1391 : 0;
1392 : 1;
1393 : 0;
1394 : 1;
1395 : 1;
1396 : 1;
1397 : 1;
1398 : 1;
1399 : 0;
139A : 1;
139B : 0;
139C : 0;
139D : 0;
139E : 0;
139F : 0;
13A0 : 0;
13A1 : 1;
13A2 : 1;
13A3 : 0;
13A4 : 1;
13A5 : 0;
13A6 : 0;
13A7 : 1;
13A8 : 1;
13A9 : 0;
13AA : 1;
13AB : 1;
13AC : 0;
13AD : 1;
13AE : 1;
13AF : 0;
13B0 : 0;
13B1 : 1;
13B2 : 0;
13B3 : 0;
13B4 : 0;
13B5 : 1;
13B6 : 1;
13B7 : 1;
13B8 : 0;
13B9 : 1;
13BA : 0;
13BB : 1;
13BC : 0;
13BD : 1;
13BE : 1;
13BF : 0;
13C0 : 0;
13C1 : 1;
13C2 : 1;
13C3 : 1;
13C4 : 1;
13C5 : 1;
13C6 : 1;
13C7 : 0;
13C8 : 1;
13C9 : 1;
13CA : 0;
13CB : 1;
13CC : 0;
13CD : 0;
13CE : 1;
13CF : 1;
13D0 : 1;
13D1 : 1;
13D2 : 1;
13D3 : 1;
13D4 : 0;
13D5 : 1;
13D6 : 1;
13D7 : 0;
13D8 : 1;
13D9 : 1;
13DA : 0;
13DB : 1;
13DC : 0;
13DD : 0;
13DE : 1;
13DF : 1;
13E0 : 0;
13E1 : 0;
13E2 : 0;
13E3 : 0;
13E4 : 1;
13E5 : 0;
13E6 : 1;
13E7 : 1;
13E8 : 1;
13E9 : 0;
13EA : 1;
13EB : 1;
13EC : 1;
13ED : 1;
13EE : 1;
13EF : 0;
13F0 : 0;
13F1 : 1;
13F2 : 1;
13F3 : 1;
13F4 : 1;
13F5 : 0;
13F6 : 1;
13F7 : 1;
13F8 : 1;
13F9 : 1;
13FA : 1;
13FB : 1;
13FC : 1;
13FD : 1;
13FE : 1;
13FF : 0;
1400 : 1;
1401 : 0;
1402 : 0;
1403 : 1;
1404 : 0;
1405 : 1;
1406 : 1;
1407 : 0;
1408 : 1;
1409 : 0;
140A : 0;
140B : 1;
140C : 1;
140D : 0;
140E : 1;
140F : 1;
1410 : 1;
1411 : 1;
1412 : 1;
1413 : 0;
1414 : 0;
1415 : 1;
1416 : 0;
1417 : 1;
1418 : 0;
1419 : 1;
141A : 1;
141B : 1;
141C : 1;
141D : 1;
141E : 0;
141F : 1;
1420 : 1;
1421 : 1;
1422 : 1;
1423 : 1;
1424 : 0;
1425 : 1;
1426 : 1;
1427 : 1;
1428 : 1;
1429 : 1;
142A : 1;
142B : 0;
142C : 1;
142D : 1;
142E : 0;
142F : 1;
1430 : 0;
1431 : 0;
1432 : 1;
1433 : 1;
1434 : 1;
1435 : 1;
1436 : 1;
1437 : 1;
1438 : 0;
1439 : 1;
143A : 1;
143B : 0;
143C : 1;
143D : 1;
143E : 0;
143F : 1;
1440 : 0;
1441 : 0;
1442 : 1;
1443 : 1;
1444 : 0;
1445 : 0;
1446 : 1;
1447 : 0;
1448 : 1;
1449 : 0;
144A : 1;
144B : 1;
144C : 1;
144D : 0;
144E : 1;
144F : 1;
1450 : 0;
1451 : 0;
1452 : 0;
1453 : 0;
1454 : 0;
1455 : 0;
1456 : 0;
1457 : 0;
1458 : 0;
1459 : 0;
145A : 0;
145B : 0;
145C : 0;
145D : 0;
145E : 0;
145F : 0;
1460 : 0;
1461 : 0;
1462 : 0;
1463 : 0;
1464 : 0;
1465 : 0;
1466 : 0;
1467 : 0;
1468 : 0;
1469 : 0;
146A : 0;
146B : 0;
146C : 0;
146D : 0;
146E : 0;
146F : 0;
1470 : 0;
1471 : 0;
1472 : 0;
1473 : 0;
1474 : 0;
1475 : 0;
1476 : 0;
1477 : 0;
1478 : 0;
1479 : 0;
147A : 0;
147B : 0;
147C : 0;
147D : 0;
147E : 0;
147F : 0;
1480 : 0;
1481 : 0;
1482 : 0;
1483 : 0;
1484 : 0;
1485 : 0;
1486 : 0;
1487 : 0;
1488 : 0;
1489 : 0;
148A : 0;
148B : 0;
148C : 0;
148D : 0;
148E : 0;
148F : 0;
1490 : 0;
1491 : 0;
1492 : 0;
1493 : 0;
1494 : 0;
1495 : 0;
1496 : 0;
1497 : 0;
1498 : 0;
1499 : 0;
149A : 0;
149B : 0;
149C : 0;
149D : 0;
149E : 0;
149F : 0;
14A0 : 0;
14A1 : 0;
14A2 : 0;
14A3 : 0;
14A4 : 0;
14A5 : 0;
14A6 : 0;
14A7 : 0;
14A8 : 0;
14A9 : 0;
14AA : 0;
14AB : 0;
14AC : 0;
14AD : 0;
14AE : 0;
14AF : 0;
14B0 : 0;
14B1 : 0;
14B2 : 0;
14B3 : 0;
14B4 : 0;
14B5 : 0;
14B6 : 0;
14B7 : 0;
14B8 : 0;
14B9 : 0;
14BA : 0;
14BB : 0;
14BC : 0;
14BD : 0;
14BE : 0;
14BF : 0;
14C0 : 0;
14C1 : 0;
14C2 : 0;
14C3 : 0;
14C4 : 0;
14C5 : 0;
14C6 : 0;
14C7 : 0;
14C8 : 0;
14C9 : 0;
14CA : 0;
14CB : 0;
14CC : 0;
14CD : 0;
14CE : 0;
14CF : 0;
14D0 : 0;
14D1 : 0;
14D2 : 0;
14D3 : 0;
14D4 : 0;
14D5 : 0;
14D6 : 0;
14D7 : 0;
14D8 : 0;
14D9 : 0;
14DA : 0;
14DB : 0;
14DC : 0;
14DD : 0;
14DE : 0;
14DF : 0;
14E0 : 0;
14E1 : 0;
14E2 : 0;
14E3 : 0;
14E4 : 0;
14E5 : 0;
14E6 : 0;
14E7 : 0;
14E8 : 0;
14E9 : 0;
14EA : 0;
14EB : 0;
14EC : 0;
14ED : 0;
14EE : 0;
14EF : 0;
14F0 : 0;
14F1 : 0;
14F2 : 0;
14F3 : 0;
14F4 : 0;
14F5 : 0;
14F6 : 0;
14F7 : 0;
14F8 : 0;
14F9 : 0;
14FA : 0;
14FB : 0;
14FC : 0;
14FD : 0;
14FE : 0;
14FF : 0;
1500 : 0;
1501 : 0;
1502 : 0;
1503 : 0;
1504 : 0;
1505 : 0;
1506 : 0;
1507 : 0;
1508 : 0;
1509 : 0;
150A : 0;
150B : 0;
150C : 0;
150D : 0;
150E : 0;
150F : 0;
1510 : 0;
1511 : 0;
1512 : 0;
1513 : 0;
1514 : 0;
1515 : 0;
1516 : 0;
1517 : 0;
1518 : 0;
1519 : 0;
151A : 0;
151B : 0;
151C : 0;
151D : 0;
151E : 0;
151F : 0;
1520 : 0;
1521 : 0;
1522 : 0;
1523 : 0;
1524 : 0;
1525 : 0;
1526 : 0;
1527 : 0;
1528 : 0;
1529 : 0;
152A : 0;
152B : 0;
152C : 0;
152D : 0;
152E : 0;
152F : 0;
1530 : 0;
1531 : 0;
1532 : 0;
1533 : 0;
1534 : 0;
1535 : 0;
1536 : 0;
1537 : 0;
1538 : 0;
1539 : 0;
153A : 0;
153B : 0;
153C : 0;
153D : 0;
153E : 0;
153F : 0;
1540 : 0;
1541 : 0;
1542 : 0;
1543 : 0;
1544 : 0;
1545 : 0;
1546 : 0;
1547 : 0;
1548 : 0;
1549 : 0;
154A : 0;
154B : 0;
154C : 0;
154D : 0;
154E : 0;
154F : 0;
1550 : 0;
1551 : 0;
1552 : 0;
1553 : 0;
1554 : 0;
1555 : 0;
1556 : 0;
1557 : 0;
1558 : 0;
1559 : 0;
155A : 0;
155B : 0;
155C : 0;
155D : 0;
155E : 0;
155F : 0;
1560 : 0;
1561 : 0;
1562 : 0;
1563 : 0;
1564 : 0;
1565 : 0;
1566 : 0;
1567 : 0;
1568 : 0;
1569 : 0;
156A : 0;
156B : 0;
156C : 0;
156D : 0;
156E : 0;
156F : 0;
1570 : 0;
1571 : 0;
1572 : 0;
1573 : 0;
1574 : 0;
1575 : 0;
1576 : 0;
1577 : 0;
1578 : 0;
1579 : 0;
157A : 0;
157B : 0;
157C : 0;
157D : 0;
157E : 0;
157F : 0;
1580 : 0;
1581 : 1;
1582 : 0;
1583 : 0;
1584 : 0;
1585 : 0;
1586 : 0;
1587 : 0;
1588 : 0;
1589 : 0;
158A : 0;
158B : 0;
158C : 0;
158D : 0;
158E : 0;
158F : 0;
1590 : 0;
1591 : 0;
1592 : 0;
1593 : 0;
1594 : 0;
1595 : 0;
1596 : 0;
1597 : 0;
1598 : 0;
1599 : 0;
159A : 0;
159B : 0;
159C : 0;
159D : 0;
159E : 1;
159F : 1;
15A0 : 0;
15A1 : 1;
15A2 : 1;
15A3 : 0;
15A4 : 0;
15A5 : 1;
15A6 : 0;
15A7 : 0;
15A8 : 0;
15A9 : 0;
15AA : 0;
15AB : 1;
15AC : 0;
15AD : 1;
15AE : 0;
15AF : 0;
15B0 : 0;
15B1 : 0;
15B2 : 0;
15B3 : 0;
15B4 : 0;
15B5 : 0;
15B6 : 1;
15B7 : 0;
15B8 : 0;
15B9 : 1;
15BA : 0;
15BB : 0;
15BC : 1;
15BD : 1;
15BE : 0;
15BF : 1;
15C0 : 0;
15C1 : 0;
15C2 : 0;
15C3 : 0;
15C4 : 1;
15C5 : 0;
15C6 : 1;
15C7 : 0;
15C8 : 0;
15C9 : 0;
15CA : 0;
15CB : 0;
15CC : 0;
15CD : 1;
15CE : 0;
15CF : 0;
15D0 : 0;
15D1 : 0;
15D2 : 0;
15D3 : 0;
15D4 : 0;
15D5 : 0;
15D6 : 0;
15D7 : 0;
15D8 : 0;
15D9 : 0;
15DA : 0;
15DB : 0;
15DC : 0;
15DD : 0;
15DE : 0;
15DF : 0;
15E0 : 1;
15E1 : 2;
15E2 : 2;
15E3 : 2;
15E4 : 2;
15E5 : 4;
15E6 : 0;
15E7 : 0;
15E8 : 0;
15E9 : 0;
15EA : 0;
15EB : 0;
15EC : 0;
15ED : 0;
15EE : 0;
15EF : 0;
15F0 : 0;
15F1 : 0;
15F2 : 0;
15F3 : 0;
15F4 : 0;
15F5 : 0;
15F6 : 0;
15F7 : 0;
15F8 : 0;
15F9 : 0;
15FA : 0;
15FB : 0;
15FC : 0;
15FD : 0;
15FE : 0;
15FF : 1;
1600 : 1;
1601 : 1;
1602 : 2;
1603 : 2;
1604 : 3;
1605 : 4;
1606 : 4;
1607 : 2;
1608 : 2;
1609 : 6;
160A : 0;
160B : 0;
160C : 0;
160D : 0;
160E : 0;
160F : 0;
1610 : 0;
1611 : 0;
1612 : 0;
1613 : 0;
1614 : 0;
1615 : 0;
1616 : 0;
1617 : 0;
1618 : 0;
1619 : 1;
161A : 1;
161B : 1;
161C : 0;
161D : 1;
161E : 1;
161F : 0;
1620 : 1;
1621 : 1;
1622 : 1;
1623 : 2;
1624 : 0;
1625 : 1;
1626 : 0;
1627 : 0;
1628 : 0;
1629 : 0;
162A : 0;
162B : 0;
162C : 0;
162D : 0;
162E : 0;
162F : 0;
1630 : 0;
1631 : 0;
1632 : 0;
1633 : 0;
1634 : 0;
1635 : 0;
1636 : 0;
1637 : 0;
1638 : 0;
1639 : 0;
163A : 0;
163B : 0;
163C : 0;
163D : 0;
163E : 1;
163F : 1;
1640 : 0;
1641 : 0;
1642 : 1;
1643 : 1;
1644 : 6;
1645 : 7;
1646 : 7;
1647 : 4;
1648 : 3;
1649 : A;
164A : 1;
164B : 1;
164C : 1;
164D : 1;
164E : 1;
164F : 1;
1650 : 1;
1651 : 1;
1652 : 1;
1653 : 1;
1654 : 1;
1655 : 1;
1656 : 1;
1657 : 0;
1658 : 1;
1659 : 1;
165A : 0;
165B : 1;
165C : 1;
165D : 1;
165E : 1;
165F : 1;
1660 : 3;
1661 : 1;
1662 : 3;
1663 : 4;
1664 : 4;
1665 : 3;
1666 : 8;
1667 : 7;
1668 : 5;
1669 : 7;
166A : 6;
166B : 2;
166C : 2;
166D : 8;
166E : 0;
166F : 0;
1670 : 0;
1671 : 1;
1672 : 1;
1673 : 1;
1674 : 1;
1675 : 1;
1676 : 0;
1677 : 1;
1678 : 0;
1679 : 1;
167A : 1;
167B : 1;
167C : 0;
167D : 1;
167E : 2;
167F : 1;
1680 : 1;
1681 : 3;
1682 : 2;
1683 : 1;
1684 : 4;
1685 : 5;
1686 : 2;
1687 : 6;
1688 : 2;
1689 : 3;
168A : 1;
168B : 1;
168C : 1;
168D : 1;
168E : 1;
168F : 1;
1690 : 0;
1691 : 1;
1692 : 1;
1693 : 0;
1694 : 1;
1695 : 1;
1696 : 0;
1697 : 1;
1698 : 0;
1699 : 0;
169A : 1;
169B : 1;
169C : 0;
169D : 0;
169E : 1;
169F : 1;
16A0 : 1;
16A1 : 0;
16A2 : 3;
16A3 : 3;
16A4 : 2;
16A5 : 3;
16A6 : 5;
16A7 : 5;
16A8 : 4;
16A9 : 4;
16AA : 4;
16AB : 2;
16AC : 1;
16AD : 4;
16AE : 6;
16AF : 4;
16B0 : 4;
16B1 : 2;
16B2 : 4;
16B3 : 3;
16B4 : 2;
16B5 : 6;
16B6 : 4;
16B7 : 4;
16B8 : 6;
16B9 : 3;
16BA : 4;
16BB : 1;
16BC : 4;
16BD : 2;
16BE : 2;
16BF : 5;
16C0 : 2;
16C1 : 5;
16C2 : 1;
16C3 : 3;
16C4 : 6;
16C5 : 2;
16C6 : 4;
16C7 : 5;
16C8 : 4;
16C9 : 3;
16CA : 7;
16CB : 6;
16CC : 5;
16CD : 8;
16CE : 6;
16CF : 3;
16D0 : 3;
16D1 : A;
16D2 : 6;
16D3 : 3;
16D4 : 1;
16D5 : 2;
16D6 : 2;
16D7 : 2;
16D8 : 1;
16D9 : 2;
16DA : 1;
16DB : 2;
16DC : 1;
16DD : 1;
16DE : 3;
16DF : 2;
16E0 : 1;
16E1 : 6;
16E2 : 6;
16E3 : 5;
16E4 : 1;
16E5 : 8;
16E6 : 4;
16E7 : 2;
16E8 : 5;
16E9 : 7;
16EA : 3;
16EB : 5;
16EC : 1;
16ED : 2;
16EE : 4;
16EF : 4;
16F0 : 4;
16F1 : 4;
16F2 : 5;
16F3 : 3;
16F4 : 3;
16F5 : 4;
16F6 : 3;
16F7 : 1;
16F8 : 5;
16F9 : 8;
16FA : 2;
16FB : 5;
16FC : 2;
16FD : 2;
16FE : 2;
16FF : 5;
1700 : 3;
1701 : 1;
1702 : 5;
1703 : 3;
1704 : 6;
1705 : 1;
1706 : 8;
1707 : 7;
1708 : 6;
1709 : 4;
170A : 6;
170B : 6;
170C : 1;
170D : 3;
170E : 3;
170F : 1;
1710 : 1;
1711 : 2;
1712 : 8;
1713 : 4;
1714 : 4;
1715 : 2;
1716 : 4;
1717 : 3;
1718 : 6;
1719 : 5;
171A : 3;
171B : 4;
171C : 7;
171D : 3;
171E : 4;
171F : 2;
1720 : 4;
1721 : 2;
1722 : 3;
1723 : 4;
1724 : 3;
1725 : 5;
1726 : 4;
1727 : 3;
1728 : 6;
1729 : 2;
172A : 5;
172B : 7;
172C : 6;
172D : 4;
172E : B;
172F : B;
1730 : 6;
1731 : A;
1732 : 9;
1733 : 2;
1734 : 3;
1735 : 9;
1736 : C;
1737 : 5;
1738 : 2;
1739 : 4;
173A : 5;
173B : 7;
173C : 4;
173D : 6;
173E : 3;
173F : 5;
1740 : 4;
1741 : 4;
1742 : 5;
1743 : 3;
1744 : 1;
1745 : 4;
1746 : 5;
1747 : 4;
1748 : 4;
1749 : 5;
174A : 3;
174B : 2;
174C : 6;
174D : 6;
174E : 3;
174F : 9;
1750 : 3;
1751 : 4;
1752 : 5;
1753 : 5;
1754 : 6;
1755 : 5;
1756 : 6;
1757 : 4;
1758 : 3;
1759 : 5;
175A : 4;
175B : 1;
175C : 6;
175D : D;
175E : 3;
175F : 7;
1760 : 4;
1761 : 2;
1762 : 4;
1763 : 6;
1764 : 3;
1765 : 2;
1766 : 3;
1767 : 3;
1768 : 5;
1769 : 3;
176A : 3;
176B : 3;
176C : 2;
176D : 1;
176E : 2;
176F : 2;
1770 : 3;
1771 : 4;
1772 : 4;
1773 : 3;
1774 : 2;
1775 : 5;
1776 : A;
1777 : 7;
1778 : 7;
1779 : 4;
177A : 7;
177B : 5;
177C : 4;
177D : 8;
177E : 6;
177F : 5;
1780 : 9;
1781 : 5;
1782 : 6;
1783 : 2;
1784 : 6;
1785 : 3;
1786 : 3;
1787 : 7;
1788 : 4;
1789 : 8;
178A : 3;
178B : 4;
178C : 7;
178D : 3;
178E : 4;
178F : 5;
1790 : 5;
1791 : 2;
1792 : 5;
1793 : 4;
1794 : 2;
1795 : 3;
1796 : 2;
1797 : 0;
1798 : 1;
1799 : 2;
179A : B;
179B : 6;
179C : 1;
179D : 3;
179E : 4;
179F : 5;
17A0 : 3;
17A1 : 4;
17A2 : 2;
17A3 : 3;
17A4 : 3;
17A5 : 3;
17A6 : 5;
17A7 : 3;
17A8 : 1;
17A9 : 9;
17AA : B;
17AB : 8;
17AC : 2;
17AD : 10;
17AE : A;
17AF : 5;
17B0 : E;
17B1 : 10;
17B2 : 7;
17B3 : F;
17B4 : 4;
17B5 : 6;
17B6 : 2;
17B7 : 2;
17B8 : 2;
17B9 : 2;
17BA : 2;
17BB : 1;
17BC : 1;
17BD : 1;
17BE : 2;
17BF : 1;
17C0 : 2;
17C1 : C;
17C2 : 1;
17C3 : 2;
17C4 : 3;
17C5 : 1;
17C6 : 3;
17C7 : 3;
17C8 : 1;
17C9 : 1;
17CA : 1;
17CB : 1;
17CC : 6;
17CD : 2;
17CE : 2;
17CF : 2;
17D0 : 2;
17D1 : 2;
17D2 : 3;
17D3 : 3;
17D4 : 4;
17D5 : 5;
17D6 : 5;
17D7 : 2;
17D8 : 2;
17D9 : 5;
17DA : 8;
17DB : 3;
17DC : 3;
17DD : 2;
17DE : 3;
17DF : 2;
17E0 : B;
17E1 : 4;
17E2 : 2;
17E3 : 2;
17E4 : 6;
17E5 : 2;
17E6 : 3;
17E7 : 4;
17E8 : 2;
17E9 : 1;
17EA : 3;
17EB : 3;
17EC : 2;
17ED : 3;
17EE : 8;
17EF : 1;
17F0 : 2;
17F1 : 1;
17F2 : 1;
17F3 : 1;
17F4 : 1;
17F5 : 0;
17F6 : 1;
17F7 : 1;
17F8 : 1;
17F9 : 1;
17FA : 1;
17FB : 0;
17FC : 0;
17FD : 1;
17FE : D;
17FF : 9;
1800 : 4;
1801 : 8;
1802 : B;
1803 : E;
1804 : 7;
1805 : B;
1806 : 6;
1807 : A;
1808 : 8;
1809 : 8;
180A : B;
180B : 6;
180C : 3;
180D : B;
180E : B;
180F : 8;
1810 : 7;
1811 : 8;
1812 : 5;
1813 : 3;
1814 : 3;
1815 : 4;
1816 : 2;
1817 : 2;
1818 : 2;
1819 : 2;
181A : 3;
181B : 3;
181C : 3;
181D : 3;
181E : 3;
181F : 2;
1820 : 2;
1821 : 2;
1822 : 3;
1823 : 3;
1824 : 3;
1825 : C;
1826 : 2;
1827 : 4;
1828 : 3;
1829 : 1;
182A : 9;
182B : 4;
182C : 2;
182D : 1;
182E : 3;
182F : 2;
1830 : 6;
1831 : 5;
1832 : 5;
1833 : 5;
1834 : 3;
1835 : 3;
1836 : 5;
1837 : 5;
1838 : 2;
1839 : 3;
183A : 3;
183B : 1;
183C : 1;
183D : 3;
183E : 7;
183F : 1;
1840 : 0;
1841 : 0;
1842 : 1;
1843 : 1;
1844 : 5;
1845 : 2;
1846 : 1;
1847 : 0;
1848 : 5;
1849 : 0;
184A : 1;
184B : 2;
184C : 0;
184D : 0;
184E : 2;
184F : 1;
1850 : 2;
1851 : 1;
1852 : 3;
1853 : 0;
1854 : 0;
1855 : 1;
1856 : 1;
1857 : 0;
1858 : 0;
1859 : 0;
185A : 1;
185B : 1;
185C : 1;
185D : 2;
185E : 1;
185F : 0;
1860 : 0;
1861 : 1;
1862 : C;
1863 : 7;
1864 : 2;
1865 : 4;
1866 : 5;
1867 : 6;
1868 : 3;
1869 : 5;
186A : 2;
186B : 4;
186C : 3;
186D : 4;
186E : 4;
186F : 2;
1870 : 1;
1871 : 2;
1872 : 2;
1873 : 1;
1874 : 3;
1875 : 1;
1876 : 2;
1877 : 1;
1878 : 1;
1879 : 1;
187A : 1;
187B : 1;
187C : 2;
187D : 2;
187E : 4;
187F : 4;
1880 : 4;
1881 : 4;
1882 : 5;
1883 : 3;
1884 : 2;
1885 : 4;
1886 : 4;
1887 : 1;
1888 : 5;
1889 : D;
188A : 2;
188B : 5;
188C : 3;
188D : 2;
188E : 4;
188F : 5;
1890 : 3;
1891 : 2;
1892 : 4;
1893 : 3;
1894 : 5;
1895 : 2;
1896 : 4;
1897 : 4;
1898 : 3;
1899 : 2;
189A : 3;
189B : 3;
189C : 3;
189D : 5;
189E : 4;
189F : 3;
18A0 : 2;
18A1 : 7;
18A2 : 7;
18A3 : 1;
18A4 : 1;
18A5 : 1;
18A6 : 1;
18A7 : 1;
18A8 : 1;
18A9 : 2;
18AA : 1;
18AB : 1;
18AC : 5;
18AD : 0;
18AE : 1;
18AF : 1;
18B0 : 1;
18B1 : 0;
18B2 : 2;
18B3 : 1;
18B4 : 2;
18B5 : 1;
18B6 : 1;
18B7 : 1;
18B8 : 1;
18B9 : 1;
18BA : 2;
18BB : 2;
18BC : 2;
18BD : 3;
18BE : 6;
18BF : 6;
18C0 : 6;
18C1 : B;
18C2 : 8;
18C3 : 3;
18C4 : 4;
18C5 : E;
18C6 : C;
18C7 : 5;
18C8 : 0;
18C9 : 2;
18CA : 1;
18CB : 1;
18CC : 1;
18CD : 1;
18CE : 1;
18CF : 2;
18D0 : 1;
18D1 : 1;
18D2 : 4;
18D3 : 1;
18D4 : 0;
18D5 : 2;
18D6 : 2;
18D7 : 1;
18D8 : 1;
18D9 : 4;
18DA : 2;
18DB : 1;
18DC : 4;
18DD : 6;
18DE : 3;
18DF : 6;
18E0 : 3;
18E1 : 4;
18E2 : 2;
18E3 : 3;
18E4 : 3;
18E5 : 2;
18E6 : 3;
18E7 : 2;
18E8 : 2;
18E9 : 2;
18EA : 3;
18EB : 0;
18EC : 3;
18ED : B;
18EE : 2;
18EF : 4;
18F0 : 4;
18F1 : 1;
18F2 : 1;
18F3 : 4;
18F4 : 2;
18F5 : 2;
18F6 : 2;
18F7 : 2;
18F8 : 6;
18F9 : 0;
18FA : 2;
18FB : 2;
18FC : 2;
18FD : 2;
18FE : 2;
18FF : 3;
1900 : F;
1901 : 11;
1902 : F;
1903 : B;
1904 : 8;
1905 : 18;
1906 : A;
1907 : 6;
1908 : 6;
1909 : 3;
190A : 6;
190B : 4;
190C : 4;
190D : 9;
190E : 6;
190F : 5;
1910 : B;
1911 : 4;
1912 : 6;
1913 : 2;
1914 : 6;
1915 : 3;
1916 : 3;
1917 : 6;
1918 : 5;
1919 : 8;
191A : 3;
191B : 6;
191C : A;
191D : 4;
191E : 8;
191F : B;
1920 : A;
1921 : 6;
1922 : 10;
1923 : 10;
1924 : 8;
1925 : D;
1926 : C;
1927 : 4;
1928 : 4;
1929 : D;
192A : B;
192B : 9;
192C : 1;
192D : 4;
192E : 4;
192F : 5;
1930 : 3;
1931 : 4;
1932 : 2;
1933 : 4;
1934 : 3;
1935 : 3;
1936 : 8;
1937 : 4;
1938 : 1;
1939 : 9;
193A : B;
193B : 8;
193C : 3;
193D : D;
193E : 8;
193F : 5;
1940 : C;
1941 : D;
1942 : 6;
1943 : D;
1944 : 5;
1945 : 6;
1946 : 3;
1947 : 3;
1948 : 3;
1949 : 3;
194A : 4;
194B : 2;
194C : 2;
194D : 3;
194E : 4;
194F : 1;
1950 : 4;
1951 : D;
1952 : 3;
1953 : 5;
1954 : 6;
1955 : 1;
1956 : 3;
1957 : 5;
1958 : 2;
1959 : 2;
195A : 5;
195B : 4;
195C : 8;
195D : 2;
195E : A;
195F : A;
1960 : 8;
1961 : 7;
1962 : E;
1963 : E;
1964 : 9;
1965 : C;
1966 : A;
1967 : 5;
1968 : 3;
1969 : A;
196A : B;
196B : 7;
196C : 8;
196D : 4;
196E : 8;
196F : 5;
1970 : A;
1971 : 9;
1972 : 6;
1973 : 6;
1974 : B;
1975 : 6;
1976 : 7;
1977 : 4;
1978 : 6;
1979 : 4;
197A : 3;
197B : 7;
197C : 5;
197D : 8;
197E : 7;
197F : 3;
1980 : 7;
1981 : 3;
1982 : 3;
1983 : 4;
1984 : 4;
1985 : 2;
1986 : 4;
1987 : 4;
1988 : 2;
1989 : 4;
198A : 2;
198B : 0;
198C : 1;
198D : 2;
198E : C;
198F : B;
1990 : 3;
1991 : 6;
1992 : 9;
1993 : B;
1994 : 6;
1995 : A;
1996 : 5;
1997 : 8;
1998 : 6;
1999 : 7;
199A : 9;
199B : 5;
199C : 2;
199D : 7;
199E : 8;
199F : 6;
19A0 : 7;
19A1 : 6;
19A2 : 4;
19A3 : 2;
19A4 : 3;
19A5 : 3;
19A6 : 2;
19A7 : 3;
19A8 : 4;
19A9 : 2;
19AA : F;
19AB : F;
19AC : 10;
19AD : 12;
19AE : 10;
19AF : B;
19B0 : 9;
19B1 : D;
19B2 : D;
19B3 : 3;
19B4 : 12;
19B5 : 15;
19B6 : 8;
19B7 : 12;
19B8 : A;
19B9 : 6;
19BA : 7;
19BB : 13;
19BC : A;
19BD : 5;
19BE : E;
19BF : B;
19C0 : 10;
19C1 : 4;
19C2 : 12;
19C3 : 12;
19C4 : E;
19C5 : 8;
19C6 : F;
19C7 : F;
19C8 : 1;
19C9 : 4;
19CA : 2;
19CB : 1;
19CC : 1;
19CD : 3;
19CE : 7;
19CF : 1;
19D0 : 1;
19D1 : 1;
19D2 : 2;
19D3 : 1;
19D4 : 2;
19D5 : 3;
19D6 : 2;
19D7 : 1;
19D8 : 8;
19D9 : 1;
19DA : 1;
19DB : 2;
19DC : 1;
19DD : 1;
19DE : 2;
19DF : 1;
19E0 : 4;
19E1 : 1;
19E2 : 2;
19E3 : 1;
19E4 : 1;
19E5 : 1;
19E6 : 1;
19E7 : 1;
19E8 : 0;
19E9 : 0;
19EA : 1;
19EB : 1;
19EC : 1;
19ED : 2;
19EE : 1;
19EF : 0;
19F0 : 0;
19F1 : 1;
19F2 : B;
19F3 : B;
19F4 : 1;
19F5 : 2;
19F6 : 2;
19F7 : 2;
19F8 : 1;
19F9 : 2;
19FA : 1;
19FB : 3;
19FC : 1;
19FD : 2;
19FE : 4;
19FF : 2;
1A00 : 0;
1A01 : 1;
1A02 : 1;
1A03 : 1;
1A04 : 1;
1A05 : 1;
1A06 : 3;
1A07 : 1;
1A08 : 1;
1A09 : 1;
1A0A : 1;
1A0B : 1;
1A0C : 3;
1A0D : 2;
1A0E : 6;
1A0F : 7;
1A10 : 8;
1A11 : 7;
1A12 : 7;
1A13 : 6;
1A14 : 4;
1A15 : 6;
1A16 : 6;
1A17 : 1;
1A18 : 8;
1A19 : E;
1A1A : 4;
1A1B : A;
1A1C : 7;
1A1D : 3;
1A1E : 1;
1A1F : 8;
1A20 : 5;
1A21 : 3;
1A22 : 4;
1A23 : 4;
1A24 : 9;
1A25 : 1;
1A26 : 4;
1A27 : 3;
1A28 : 2;
1A29 : 2;
1A2A : 2;
1A2B : 2;
1A2C : 4;
1A2D : 7;
1A2E : 5;
1A2F : 5;
1A30 : 3;
1A31 : A;
1A32 : 7;
1A33 : 1;
1A34 : 1;
1A35 : 1;
1A36 : 2;
1A37 : 1;
1A38 : 1;
1A39 : 3;
1A3A : 2;
1A3B : 1;
1A3C : 8;
1A3D : 1;
1A3E : 1;
1A3F : 2;
1A40 : 1;
1A41 : 0;
1A42 : 2;
1A43 : 1;
1A44 : 4;
1A45 : 1;
1A46 : 1;
1A47 : 1;
1A48 : 1;
1A49 : 1;
1A4A : 2;
1A4B : 2;
1A4C : 1;
1A4D : 1;
1A4E : 3;
1A4F : 3;
1A50 : 2;
1A51 : 4;
1A52 : 3;
1A53 : 1;
1A54 : 1;
1A55 : 4;
1A56 : B;
1A57 : 9;
1A58 : 1;
1A59 : 2;
1A5A : 1;
1A5B : 2;
1A5C : 1;
1A5D : 2;
1A5E : 1;
1A5F : 2;
1A60 : 1;
1A61 : 1;
1A62 : 3;
1A63 : 2;
1A64 : 0;
1A65 : 3;
1A66 : 3;
1A67 : 2;
1A68 : 1;
1A69 : 3;
1A6A : 3;
1A6B : 2;
1A6C : 3;
1A6D : 3;
1A6E : 2;
1A6F : 3;
1A70 : 4;
1A71 : 3;
1A72 : 2;
1A73 : 2;
1A74 : 2;
1A75 : 2;
1A76 : 2;
1A77 : 1;
1A78 : 1;
1A79 : 1;
1A7A : 3;
1A7B : 0;
1A7C : 2;
1A7D : C;
1A7E : 2;
1A7F : 3;
1A80 : 8;
1A81 : 1;
1A82 : 1;
1A83 : 3;
1A84 : 1;
1A85 : 2;
1A86 : 2;
1A87 : 3;
1A88 : A;
1A89 : 1;
1A8A : 3;
1A8B : 3;
1A8C : 2;
1A8D : 2;
1A8E : 3;
1A8F : 3;
1A90 : 1B;
1A91 : 20;
1A92 : 1D;
1A93 : 14;
1A94 : E;
1A95 : 2A;
1A96 : 8;
1A97 : 3;
1A98 : 3;
1A99 : 2;
1A9A : 4;
1A9B : 2;
1A9C : 3;
1A9D : 5;
1A9E : 3;
1A9F : 3;
1AA0 : B;
1AA1 : 3;
1AA2 : 3;
1AA3 : 2;
1AA4 : 3;
1AA5 : 2;
1AA6 : 3;
1AA7 : 3;
1AA8 : 6;
1AA9 : 4;
1AAA : 2;
1AAB : 3;
1AAC : 5;
1AAD : 2;
1AAE : 4;
1AAF : 5;
1AB0 : 5;
1AB1 : 4;
1AB2 : A;
1AB3 : A;
1AB4 : 6;
1AB5 : A;
1AB6 : 8;
1AB7 : 3;
1AB8 : 4;
1AB9 : E;
1ABA : C;
1ABB : C;
1ABC : 1;
1ABD : 3;
1ABE : 3;
1ABF : 3;
1AC0 : 2;
1AC1 : 3;
1AC2 : 2;
1AC3 : 4;
1AC4 : 2;
1AC5 : 2;
1AC6 : 4;
1AC7 : 3;
1AC8 : 1;
1AC9 : 4;
1ACA : 5;
1ACB : 4;
1ACC : 2;
1ACD : 9;
1ACE : 7;
1ACF : 4;
1AD0 : 8;
1AD1 : B;
1AD2 : 5;
1AD3 : C;
1AD4 : 5;
1AD5 : 6;
1AD6 : 9;
1AD7 : 9;
1AD8 : B;
1AD9 : B;
1ADA : C;
1ADB : 8;
1ADC : 6;
1ADD : 8;
1ADE : 9;
1ADF : 1;
1AE0 : B;
1AE1 : 11;
1AE2 : 6;
1AE3 : D;
1AE4 : D;
1AE5 : 4;
1AE6 : 2;
1AE7 : C;
1AE8 : 7;
1AE9 : 4;
1AEA : D;
1AEB : 9;
1AEC : 13;
1AED : 1;
1AEE : 17;
1AEF : 16;
1AF0 : 11;
1AF1 : D;
1AF2 : 1B;
1AF3 : 1B;
1AF4 : F;
1AF5 : 12;
1AF6 : 10;
1AF7 : 7;
1AF8 : 6;
1AF9 : 10;
1AFA : 10;
1AFB : B;
1AFC : C;
1AFD : 6;
1AFE : B;
1AFF : 8;
1B00 : 12;
1B01 : F;
1B02 : A;
1B03 : A;
1B04 : 17;
1B05 : 9;
1B06 : A;
1B07 : 7;
1B08 : B;
1B09 : 6;
1B0A : 5;
1B0B : B;
1B0C : 9;
1B0D : E;
1B0E : E;
1B0F : 9;
1B10 : 11;
1B11 : 6;
1B12 : E;
1B13 : 14;
1B14 : 11;
1B15 : C;
1B16 : 1F;
1B17 : 1D;
1B18 : 13;
1B19 : 1D;
1B1A : 1A;
1B1B : 9;
1B1C : 9;
1B1D : 22;
1B1E : 11;
1B1F : 14;
1B20 : 7;
1B21 : C;
1B22 : 12;
1B23 : 17;
1B24 : D;
1B25 : 14;
1B26 : 9;
1B27 : 11;
1B28 : C;
1B29 : D;
1B2A : 15;
1B2B : F;
1B2C : 6;
1B2D : 22;
1B2E : 29;
1B2F : 1E;
1B30 : D;
1B31 : 2B;
1B32 : 1A;
1B33 : F;
1B34 : 21;
1B35 : 28;
1B36 : 13;
1B37 : 29;
1B38 : C;
1B39 : 13;
1B3A : 1D;
1B3B : 1F;
1B3C : 20;
1B3D : 20;
1B3E : 25;
1B3F : 17;
1B40 : 11;
1B41 : 19;
1B42 : 17;
1B43 : 5;
1B44 : 25;
1B45 : 27;
1B46 : F;
1B47 : 26;
1B48 : 11;
1B49 : B;
1B4A : F;
1B4B : 23;
1B4C : 13;
1B4D : 9;
1B4E : 19;
1B4F : 14;
1B50 : 1F;
1B51 : 8;
1B52 : 1E;
1B53 : 1C;
1B54 : 17;
1B55 : F;
1B56 : 1C;
1B57 : 1A;
1B58 : 7;
1B59 : B;
1B5A : 7;
1B5B : 5;
1B5C : 3;
1B5D : 9;
1B5E : 17;
1B5F : 15;
1B60 : 15;
1B61 : B;
1B62 : 15;
1B63 : E;
1B64 : 2F;
1B65 : 18;
1B66 : 10;
1B67 : 11;
1B68 : 1D;
1B69 : 10;
1B6A : 13;
1B6B : 10;
1B6C : 13;
1B6D : B;
1B6E : 7;
1B6F : 14;
1B70 : D;
1B71 : 19;
1B72 : 1C;
1B73 : C;
1B74 : 16;
1B75 : 8;
1B76 : C;
1B77 : F;
1B78 : 11;
1B79 : 7;
1B7A : 12;
1B7B : 11;
1B7C : 9;
1B7D : E;
1B7E : D;
1B7F : 2;
1B80 : 3;
1B81 : B;
1B82 : 16;
1B83 : 1F;
1B84 : 10;
1B85 : 1E;
1B86 : 29;
1B87 : 37;
1B88 : 1F;
1B89 : 2D;
1B8A : 19;
1B8B : 28;
1B8C : 1F;
1B8D : 21;
1B8E : 2D;
1B8F : 1C;
1B90 : B;
1B91 : 2C;
1B92 : 30;
1B93 : 28;
1B94 : 1E;
1B95 : 31;
1B96 : 1C;
1B97 : 12;
1B98 : 25;
1B99 : 2B;
1B9A : 15;
1B9B : 26;
1B9C : A;
1B9D : 11;
1B9E : B;
1B9F : C;
1BA0 : C;
1BA1 : C;
1BA2 : E;
1BA3 : 9;
1BA4 : 7;
1BA5 : 9;
1BA6 : 8;
1BA7 : C;
1BA8 : D;
1BA9 : 10;
1BAA : 6;
1BAB : E;
1BAC : C;
1BAD : 4;
1BAE : 23;
1BAF : E;
1BB0 : 7;
1BB1 : 4;
1BB2 : 9;
1BB3 : 9;
1BB4 : 13;
1BB5 : 14;
1BB6 : D;
1BB7 : B;
1BB8 : 8;
1BB9 : 8;
1BBA : 9;
1BBB : A;
1BBC : 4;
1BBD : 9;
1BBE : 6;
1BBF : 2;
1BC0 : 2;
1BC1 : 6;
1BC2 : 9;
1BC3 : 5;
1BC4 : 6;
1BC5 : 3;
1BC6 : 7;
1BC7 : 4;
1BC8 : 27;
1BC9 : 7;
1BCA : 6;
1BCB : 5;
1BCC : 11;
1BCD : 4;
1BCE : 5;
1BCF : D;
1BD0 : 4;
1BD1 : 3;
1BD2 : 3;
1BD3 : 5;
1BD4 : 8;
1BD5 : 7;
1BD6 : 18;
1BD7 : 3;
1BD8 : 5;
1BD9 : 2;
1BDA : 4;
1BDB : 4;
1BDC : 4;
1BDD : 2;
1BDE : 5;
1BDF : 5;
1BE0 : 4;
1BE1 : 5;
1BE2 : 4;
1BE3 : 1;
1BE4 : 1;
1BE5 : 6;
1BE6 : 12;
1BE7 : 19;
1BE8 : D;
1BE9 : 17;
1BEA : 23;
1BEB : 2D;
1BEC : 16;
1BED : 25;
1BEE : 14;
1BEF : 20;
1BF0 : 16;
1BF1 : 1B;
1BF2 : 22;
1BF3 : 15;
1BF4 : 8;
1BF5 : 28;
1BF6 : 2C;
1BF7 : 21;
1BF8 : 19;
1BF9 : 30;
1BFA : 1D;
1BFB : 10;
1BFC : 26;
1BFD : 29;
1BFE : 13;
1BFF : 24;
1C00 : A;
1C01 : F;
1C02 : 8;
1C03 : 8;
1C04 : 8;
1C05 : 9;
1C06 : A;
1C07 : 6;
1C08 : 5;
1C09 : 7;
1C0A : 7;
1C0B : 9;
1C0C : 9;
1C0D : F;
1C0E : 5;
1C0F : A;
1C10 : C;
1C11 : 3;
1C12 : 1C;
1C13 : A;
1C14 : 6;
1C15 : 3;
1C16 : 7;
1C17 : 7;
1C18 : 11;
1C19 : 10;
1C1A : 6;
1C1B : 7;
1C1C : 5;
1C1D : 6;
1C1E : 7;
1C1F : 7;
1C20 : 2;
1C21 : 9;
1C22 : 3;
1C23 : 3;
1C24 : 3;
1C25 : 7;
1C26 : E;
1C27 : A;
1C28 : A;
1C29 : 6;
1C2A : C;
1C2B : 8;
1C2C : 35;
1C2D : D;
1C2E : B;
1C2F : 9;
1C30 : 1C;
1C31 : 8;
1C32 : A;
1C33 : 13;
1C34 : 9;
1C35 : 5;
1C36 : 4;
1C37 : 8;
1C38 : A;
1C39 : B;
1C3A : 24;
1C3B : 6;
1C3C : A;
1C3D : 4;
1C3E : A;
1C3F : D;
1C40 : D;
1C41 : 9;
1C42 : 18;
1C43 : 16;
1C44 : 9;
1C45 : D;
1C46 : C;
1C47 : 8;
1C48 : 8;
1C49 : 1F;
1C4A : 1A;
1C4B : 26;
1C4C : 12;
1C4D : 22;
1C4E : 30;
1C4F : 3E;
1C50 : 21;
1C51 : 35;
1C52 : 19;
1C53 : 2A;
1C54 : 20;
1C55 : 23;
1C56 : 2F;
1C57 : 20;
1C58 : C;
1C59 : 40;
1C5A : 47;
1C5B : 36;
1C5C : 22;
1C5D : 49;
1C5E : 2A;
1C5F : 19;
1C60 : 32;
1C61 : 3C;
1C62 : 1C;
1C63 : 40;
1C64 : 12;
1C65 : 1D;
1C66 : 3;
1C67 : 3;
1C68 : 3;
1C69 : 3;
1C6A : 4;
1C6B : 2;
1C6C : 3;
1C6D : 3;
1C6E : 3;
1C6F : D;
1C70 : 5;
1C71 : C;
1C72 : 4;
1C73 : 4;
1C74 : D;
1C75 : 1;
1C76 : 28;
1C77 : 5;
1C78 : 3;
1C79 : 3;
1C7A : 4;
1C7B : 5;
1C7C : 15;
1C7D : 16;
1C7E : 3;
1C7F : 3;
1C80 : 3;
1C81 : 6;
1C82 : 7;
1C83 : 7;
1C84 : 1E;
1C85 : 2A;
1C86 : 20;
1C87 : F;
1C88 : B;
1C89 : 22;
1C8A : 2F;
1C8B : 2D;
1C8C : 2B;
1C8D : 16;
1C8E : 2C;
1C8F : 1D;
1C90 : 2B;
1C91 : 33;
1C92 : 24;
1C93 : 25;
1C94 : 41;
1C95 : 21;
1C96 : 28;
1C97 : 11;
1C98 : 28;
1C99 : 16;
1C9A : F;
1C9B : 27;
1C9C : 1A;
1C9D : 2E;
1C9E : 20;
1C9F : 1B;
1CA0 : 30;
1CA1 : 12;
1CA2 : 20;
1CA3 : 2A;
1CA4 : 29;
1CA5 : 13;
1CA6 : 32;
1CA7 : 31;
1CA8 : 28;
1CA9 : 3B;
1CAA : 36;
1CAB : C;
1CAC : D;
1CAD : 2F;
1CAE : 12;
1CAF : 31;
1CB0 : F;
1CB1 : 1D;
1CB2 : 28;
1CB3 : 35;
1CB4 : 1D;
1CB5 : 2A;
1CB6 : 19;
1CB7 : 28;
1CB8 : 1D;
1CB9 : 21;
1CBA : 2B;
1CBB : 1E;
1CBC : A;
1CBD : 23;
1CBE : 23;
1CBF : 1B;
1CC0 : 1E;
1CC1 : 30;
1CC2 : 1D;
1CC3 : 10;
1CC4 : 1F;
1CC5 : 22;
1CC6 : 12;
1CC7 : 1F;
1CC8 : A;
1CC9 : D;
1CCA : 1A;
1CCB : 1D;
1CCC : 1F;
1CCD : 1E;
1CCE : 22;
1CCF : 17;
1CD0 : 11;
1CD1 : 18;
1CD2 : 16;
1CD3 : B;
1CD4 : 1C;
1CD5 : 21;
1CD6 : E;
1CD7 : 1F;
1CD8 : 1A;
1CD9 : B;
1CDA : 22;
1CDB : 1D;
1CDC : 10;
1CDD : 8;
1CDE : 14;
1CDF : 12;
1CE0 : 2A;
1CE1 : 14;
1CE2 : 23;
1CE3 : 22;
1CE4 : 1B;
1CE5 : 11;
1CE6 : 18;
1CE7 : 1A;
1CE8 : 23;
1CE9 : 34;
1CEA : 22;
1CEB : 18;
1CEC : 11;
1CED : 2F;
1CEE : 25;
1CEF : 22;
1CF0 : 21;
1CF1 : 12;
1CF2 : 21;
1CF3 : 18;
1CF4 : 26;
1CF5 : 2A;
1CF6 : 1D;
1CF7 : 1D;
1CF8 : 41;
1CF9 : 1A;
1CFA : 1F;
1CFB : 10;
1CFC : 1D;
1CFD : 11;
1CFE : B;
1CFF : 1F;
1D00 : 25;
1D01 : 26;
1D02 : 1B;
1D03 : 16;
1D04 : 27;
1D05 : E;
1D06 : 15;
1D07 : 1C;
1D08 : 1B;
1D09 : 13;
1D0A : 34;
1D0B : 30;
1D0C : 1A;
1D0D : 28;
1D0E : 24;
1D0F : 9;
1D10 : A;
1D11 : 25;
1D12 : 10;
1D13 : 3D;
1D14 : E;
1D15 : 19;
1D16 : 23;
1D17 : 2D;
1D18 : 1B;
1D19 : 27;
1D1A : 12;
1D1B : 22;
1D1C : 17;
1D1D : 1C;
1D1E : 1F;
1D1F : 17;
1D20 : 7;
1D21 : 2B;
1D22 : 30;
1D23 : 23;
1D24 : 1B;
1D25 : 25;
1D26 : 1D;
1D27 : 10;
1D28 : 28;
1D29 : 32;
1D2A : 18;
1D2B : 1B;
1D2C : B;
1D2D : D;
1D2E : 2C;
1D2F : 2F;
1D30 : 32;
1D31 : 34;
1D32 : 36;
1D33 : 25;
1D34 : 1E;
1D35 : 2A;
1D36 : 25;
1D37 : A;
1D38 : 3B;
1D39 : 39;
1D3A : 19;
1D3B : 3A;
1D3C : 39;
1D3D : 12;
1D3E : 1D;
1D3F : 33;
1D40 : 1B;
1D41 : D;
1D42 : 2A;
1D43 : 1E;
1D44 : 45;
1D45 : 11;
1D46 : 2C;
1D47 : 28;
1D48 : 1F;
1D49 : 20;
1D4A : 35;
1D4B : 34;
1D4C : A;
1D4D : 0;
1D4E : 5;
1D4F : 0;
1D50 : 0;
1D51 : 0;
1D52 : 0;
1D53 : 0;
1D54 : 0;
1D55 : F;
1D56 : 5;
1D57 : A;
1D58 : 5;
1D59 : 5;
1D5A : 0;
1D5B : 5;
1D5C : 5;
1D5D : A;
1D5E : 5;
1D5F : 19;
1D60 : 0;
1D61 : 0;
1D62 : 14;
1D63 : A;
1D64 : A;
1D65 : F;
1D66 : 5;
1D67 : 5;
1D68 : A;
1D69 : A;
1D6A : A;
1D6B : 0;
1D6C : 5;
1D6D : 5;
1D6E : F;
1D6F : A;
1D70 : 0;
1D71 : 5;
1D72 : 0;
1D73 : 0;
1D74 : 5;
1D75 : A;
1D76 : A;
1D77 : 5;
1D78 : 5;
1D79 : F;
1D7A : 0;
1D7B : A;
1D7C : F;
1D7D : 0;
1D7E : 0;
1D7F : 0;
1D80 : 0;
1D81 : 0;
1D82 : 0;
1D83 : 0;
1D84 : 0;
1D85 : 0;
1D86 : 0;
1D87 : 0;
1D88 : 0;
1D89 : 5;
1D8A : A;
1D8B : A;
1D8C : 5;
1D8D : 0;
1D8E : A;
1D8F : A;
1D90 : A;
1D91 : A;
1D92 : A;
1D93 : A;
1D94 : 14;
1D95 : 5;
1D96 : F;
1D97 : A;
1D98 : 0;
1D99 : A;
1D9A : A;
1D9B : 0;
1D9C : 5;
1D9D : 5;
1D9E : F;
1D9F : F;
1DA0 : 5;
1DA1 : 0;
1DA2 : F;
1DA3 : 23;
1DA4 : 19;
1DA5 : 5;
1DA6 : 19;
1DA7 : 0;
1DA8 : F;
1DA9 : A;
1DAA : 5;
1DAB : 5;
1DAC : 0;
1DAD : 0;
1DAE : 14;
1DAF : 0;
1DB0 : 23;
1DB1 : 11;
1DB2 : 2C;
1DB3 : 12;
1DB4 : 17;
1DB5 : 1C;
1DB6 : C;
1DB7 : 12;
1DB8 : C;
1DB9 : 1C;
1DBA : 16;
1DBB : 33;
1DBC : 12;
1DBD : 25;
1DBE : 15;
1DBF : 2A;
1DC0 : D;
1DC1 : 23;
1DC2 : 1A;
1DC3 : 42;
1DC4 : F;
1DC5 : 17;
1DC6 : 3D;
1DC7 : 2A;
1DC8 : 38;
1DC9 : 14;
1DCA : 1C;
1DCB : 11;
1DCC : 22;
1DCD : 18;
1DCE : 13;
1DCF : A;
1DD0 : A;
1DD1 : 1E;
1DD2 : 27;
1DD3 : 1E;
1DD4 : B;
1DD5 : 1B;
1DD6 : C;
1DD7 : 15;
1DD8 : 19;
1DD9 : 13;
1DDA : 17;
1DDB : C;
1DDC : 10;
1DDD : 20;
1DDE : 9;
1DDF : 18;
1DE0 : 22;
1DE1 : 8;
1DE2 : 2B;
1DE3 : D;
1DE4 : 10;
1DE5 : A;
1DE6 : 13;
1DE7 : D;
1DE8 : 1F;
1DE9 : 20;
1DEA : 18;
1DEB : 1B;
1DEC : E;
1DED : 16;
1DEE : 33;
1DEF : 2D;
1DF0 : 11;
1DF1 : 1C;
1DF2 : 13;
1DF3 : 22;
1DF4 : 1E;
1DF5 : 22;
1DF6 : 2D;
1DF7 : 2E;
1DF8 : 32;
1DF9 : 18;
1DFA : 26;
1DFB : F;
1DFC : 10;
1DFD : 2C;
1DFE : 1E;
1DFF : 16;
1E00 : 31;
1E01 : 1D;
1E02 : 2B;
1E03 : 35;
1E04 : 23;
1E05 : 18;
1E06 : 51;
1E07 : 49;
1E08 : 32;
1E09 : 12;
1E0A : 31;
1E0B : B;
1E0C : 2C;
1E0D : 34;
1E0E : 14;
1E0F : 2C;
1E10 : 1A;
1E11 : 1D;
1E12 : 4C;
1E13 : 20;
1E14 : 1A;
1E15 : 29;
1E16 : 4F;
1E17 : 27;
1E18 : 35;
1E19 : 5E;
1E1A : 20;
1E1B : 3C;
1E1C : 26;
1E1D : 20;
1E1E : E;
1E1F : 21;
1E20 : B;
1E21 : 16;
1E22 : D;
1E23 : 19;
1E24 : 9;
1E25 : 14;
1E26 : 1F;
1E27 : 28;
1E28 : 9;
1E29 : 11;
1E2A : 3B;
1E2B : 1C;
1E2C : 20;
1E2D : 11;
1E2E : 1F;
1E2F : 13;
1E30 : 25;
1E31 : 13;
1E32 : 14;
1E33 : A;
1E34 : C;
1E35 : 23;
1E36 : 28;
1E37 : 22;
1E38 : D;
1E39 : 21;
1E3A : D;
1E3B : 17;
1E3C : 1A;
1E3D : 15;
1E3E : 19;
1E3F : E;
1E40 : 12;
1E41 : 26;
1E42 : B;
1E43 : 1D;
1E44 : 27;
1E45 : 9;
1E46 : 25;
1E47 : B;
1E48 : E;
1E49 : 9;
1E4A : 18;
1E4B : F;
1E4C : 26;
1E4D : 26;
1E4E : 1E;
1E4F : 20;
1E50 : F;
1E51 : 18;
1E52 : 34;
1E53 : 30;
1E54 : 12;
1E55 : 1D;
1E56 : 15;
1E57 : 25;
1E58 : 21;
1E59 : 1B;
1E5A : 2A;
1E5B : 32;
1E5C : 34;
1E5D : 1A;
1E5E : 2A;
1E5F : 10;
1E60 : 11;
1E61 : 2F;
1E62 : 1F;
1E63 : 17;
1E64 : 34;
1E65 : 21;
1E66 : 2D;
1E67 : 3D;
1E68 : 26;
1E69 : 19;
1E6A : 4E;
1E6B : 56;
1E6C : 3E;
1E6D : 17;
1E6E : 3F;
1E6F : B;
1E70 : 47;
1E71 : 57;
1E72 : 22;
1E73 : 2A;
1E74 : 1E;
1E75 : 20;
1E76 : 4E;
1E77 : 26;
1E78 : 17;
1E79 : 2;
1E7A : 8;
1E7B : 4;
1E7C : 3;
1E7D : 9;
1E7E : 4;
1E7F : 6;
1E80 : 4;
1E81 : 1C;
1E82 : 4;
1E83 : 5;
1E84 : 3;
1E85 : 2;
1E86 : 1;
1E87 : 2;
1E88 : 2;
1E89 : 1;
1E8A : 1A;
1E8B : 2;
1E8C : 2;
1E8D : 6;
1E8E : 24;
1E8F : 8;
1E90 : 3;
1E91 : F;
1E92 : 1A;
1E93 : 11;
1E94 : 21;
1E95 : 11;
1E96 : 12;
1E97 : 9;
1E98 : A;
1E99 : 1D;
1E9A : 1A;
1E9B : 1D;
1E9C : B;
1E9D : 1C;
1E9E : B;
1E9F : 13;
1EA0 : 15;
1EA1 : 13;
1EA2 : 16;
1EA3 : D;
1EA4 : 10;
1EA5 : 1F;
1EA6 : 9;
1EA7 : 17;
1EA8 : 20;
1EA9 : 7;
1EAA : 34;
1EAB : F;
1EAC : 13;
1EAD : C;
1EAE : 13;
1EAF : C;
1EB0 : 1F;
1EB1 : 1F;
1EB2 : 2C;
1EB3 : 2E;
1EB4 : F;
1EB5 : 1C;
1EB6 : 3;
1EB7 : 3;
1EB8 : 2;
1EB9 : 2;
1EBA : 12;
1EBB : 3;
1EBC : 2;
1EBD : 7;
1EBE : 1A;
1EBF : 6;
1EC0 : 3;
1EC1 : 3;
1EC2 : 3;
1EC3 : D;
1EC4 : 2;
1EC5 : 3;
1EC6 : 3;
1EC7 : 2;
1EC8 : 3;
1EC9 : 6;
1ECA : 1E;
1ECB : 11;
[...]
6D81 : 1;
6D82 : 1;
6D83 : 1;
6D84 : 1;
6D85 : 1;
6D86 : 1;
6D87 : 1;
6D88 : 0;
6D89 : 1;
6D8A : 0;
6D8B : 1;
6D8C : 0;
6D8D : 0;
6D8E : 1;
6D8F : 1;
6D90 : 1;
6D91 : 1;
6D92 : 1;
6D93 : 1;
6D94 : 1;
6D95 : 1;
6D96 : 1;
6D97 : 1;
6D98 : 1;
6D99 : 1;
6D9A : 1;
6D9B : 0;
6D9C : 1;
6D9D : 1;
6D9E : 1;
6D9F : 1;
6DA0 : 1;
6DA1 : 1;
6DA2 : 1;
6DA3 : 1;
6DA4 : 1;
6DA5 : 1;
6DA6 : 1;
6DA7 : 0;
6DA8 : 1;
6DA9 : 1;
6DAA : 1;
6DAB : 0;
6DAC : 1;
6DAD : 0;
6DAE : 1;
6DAF : 1;
6DB0 : 1;
6DB1 : 0;
6DB2 : 0;
6DB3 : 1;
6DB4 : 0;
6DB5 : 0;
6DB6 : 1;
6DB7 : 1;
6DB8 : 1;
6DB9 : 1;
6DBA : 1;
6DBB : 1;
6DBC : 1;
6DBD : 1;
6DBE : 1;
6DBF : 1;
6DC0 : 1;
6DC1 : 1;
6DC2 : 1;
6DC3 : 1;
6DC4 : 1;
6DC5 : 1;
6DC6 : 0;
6DC7 : 1;
6DC8 : 0;
6DC9 : 1;
6DCA : 0;
6DCB : 0;
6DCC : 0;
6DCD : 0;
6DCE : 0;
6DCF : 0;
6DD0 : 0;
6DD1 : 0;
6DD2 : 0;
6DD3 : 0;
6DD4 : 0;
6DD5 : 0;
6DD6 : 0;
6DD7 : 0;
6DD8 : 0;
6DD9 : 0;
6DDA : 0;
6DDB : 0;
6DDC : 0;
6DDD : 0;
6DDE : 0;
6DDF : 0;
6DE0 : 0;
6DE1 : 0;
6DE2 : 0;
6DE3 : 0;
6DE4 : 0;
6DE5 : 0;
6DE6 : 0;
6DE7 : 0;
6DE8 : 0;
6DE9 : 0;
6DEA : 0;
6DEB : 0;
6DEC : 0;
6DED : 0;
6DEE : 0;
6DEF : 0;
6DF0 : 0;
6DF1 : 0;
6DF2 : 0;
6DF3 : 0;
6DF4 : 0;
6DF5 : 0;
6DF6 : 0;
6DF7 : 0;
6DF8 : 0;
6DF9 : 0;
6DFA : 0;
6DFB : 0;
6DFC : 0;
6DFD : 0;
6DFE : 0;
6DFF : 0;
6E00 : 0;
6E01 : 0;
6E02 : 0;
6E03 : 0;
6E04 : 1;
6E05 : 1;
6E06 : 1;
6E07 : 2;
6E08 : 1;
6E09 : 1;
6E0A : 0;
6E0B : 0;
6E0C : 0;
6E0D : 0;
6E0E : 0;
6E0F : 0;
6E10 : 0;
6E11 : 0;
6E12 : 0;
6E13 : 0;
6E14 : 0;
6E15 : 0;
6E16 : 0;
6E17 : 0;
6E18 : 0;
6E19 : 0;
6E1A : 0;
6E1B : 0;
6E1C : 0;
6E1D : 0;
6E1E : 0;
6E1F : 0;
6E20 : 0;
6E21 : 0;
6E22 : 0;
6E23 : 0;
6E24 : 0;
6E25 : 0;
6E26 : 0;
6E27 : 0;
6E28 : 2;
6E29 : 2;
6E2A : 1;
6E2B : 2;
6E2C : 1;
6E2D : 3;
6E2E : 0;
6E2F : 0;
6E30 : 0;
6E31 : 0;
6E32 : 0;
6E33 : 0;
6E34 : 0;
6E35 : 0;
6E36 : 0;
6E37 : 0;
6E38 : 0;
6E39 : 0;
6E3A : 0;
6E3B : 0;
6E3C : 0;
6E3D : 0;
6E3E : 0;
6E3F : 0;
6E40 : 0;
6E41 : 0;
6E42 : 0;
6E43 : 0;
6E44 : 0;
6E45 : 0;
6E46 : 0;
6E47 : 0;
6E48 : 0;
6E49 : 0;
6E4A : 1;
6E4B : 0;
6E4C : 2;
6E4D : 1;
6E4E : 1;
6E4F : 2;
6E50 : 1;
6E51 : 2;
6E52 : 0;
6E53 : 0;
6E54 : 0;
6E55 : 0;
6E56 : 0;
6E57 : 0;
6E58 : 0;
6E59 : 0;
6E5A : 0;
6E5B : 0;
6E5C : 0;
6E5D : 0;
6E5E : 0;
6E5F : 0;
6E60 : 0;
6E61 : 1;
6E62 : 1;
6E63 : 0;
6E64 : 0;
6E65 : 1;
6E66 : 2;
6E67 : 2;
6E68 : 3;
6E69 : 2;
6E6A : 3;
6E6B : 4;
6E6C : 2;
6E6D : 2;
6E6E : 0;
6E6F : 0;
6E70 : 0;
6E71 : 0;
6E72 : 0;
6E73 : 0;
6E74 : 0;
6E75 : 0;
6E76 : 0;
6E77 : 0;
6E78 : 0;
6E79 : 0;
6E7A : 0;
6E7B : 0;
6E7C : 0;
6E7D : 0;
6E7E : 0;
6E7F : 0;
6E80 : 0;
6E81 : 0;
6E82 : 1;
6E83 : 0;
6E84 : 0;
6E85 : 0;
6E86 : 1;
6E87 : 1;
6E88 : 1;
6E89 : 2;
6E8A : 1;
6E8B : 2;
6E8C : 1;
6E8D : 1;
6E8E : 0;
6E8F : 1;
6E90 : 0;
6E91 : 1;
6E92 : 0;
6E93 : 1;
6E94 : 1;
6E95 : 1;
6E96 : 1;
6E97 : 0;
6E98 : 1;
6E99 : 1;
6E9A : 1;
6E9B : 1;
6E9C : 0;
6E9D : 1;
6E9E : 1;
6E9F : 1;
6EA0 : 4;
6EA1 : 0;
6EA2 : 1;
6EA3 : 1;
6EA4 : 0;
6EA5 : 1;
6EA6 : 2;
6EA7 : 0;
6EA8 : 2;
6EA9 : 1;
6EAA : 3;
6EAB : 1;
6EAC : 2;
6EAD : 3;
6EAE : 4;
6EAF : 7;
6EB0 : 5;
6EB1 : 3;
6EB2 : 2;
6EB3 : 3;
6EB4 : 1;
6EB5 : 3;
6EB6 : 4;
6EB7 : 2;
6EB8 : 1;
6EB9 : 1;
6EBA : 1;
6EBB : 1;
6EBC : 2;
6EBD : 1;
6EBE : 2;
6EBF : 2;
6EC0 : 1;
6EC1 : 2;
6EC2 : 2;
6EC3 : 2;
6EC4 : 1;
6EC5 : 3;
6EC6 : 7;
6EC7 : 1;
6EC8 : 1;
6EC9 : 1;
6ECA : 2;
6ECB : 2;
6ECC : 1;
6ECD : 1;
6ECE : 1;
6ECF : 1;
6ED0 : 0;
6ED1 : 1;
6ED2 : 1;
6ED3 : 0;
6ED4 : 1;
6ED5 : 1;
6ED6 : 1;
6ED7 : 1;
6ED8 : 2;
6ED9 : 0;
6EDA : 1;
6EDB : 1;
6EDC : 2;
6EDD : 1;
6EDE : 0;
6EDF : 1;
6EE0 : 1;
6EE1 : 4;
6EE2 : 1;
6EE3 : 2;
6EE4 : 1;
6EE5 : 1;
6EE6 : 3;
6EE7 : 2;
6EE8 : 1;
6EE9 : 1;
6EEA : 2;
6EEB : 2;
6EEC : 2;
6EED : 2;
6EEE : 1;
6EEF : 2;
6EF0 : 1;
6EF1 : 1;
6EF2 : 0;
6EF3 : 1;
6EF4 : 1;
6EF5 : 1;
6EF6 : 1;
6EF7 : 2;
6EF8 : 2;
6EF9 : 3;
6EFA : 2;
6EFB : 1;
6EFC : 1;
6EFD : 3;
6EFE : 3;
6EFF : 2;
6F00 : 1;
6F01 : 2;
6F02 : 3;
6F03 : 1;
6F04 : 7;
6F05 : 2;
6F06 : 2;
6F07 : 4;
6F08 : 2;
6F09 : 2;
6F0A : 2;
6F0B : 1;
6F0C : 4;
6F0D : 2;
6F0E : 4;
6F0F : 1;
6F10 : 4;
6F11 : 2;
6F12 : 3;
6F13 : C;
6F14 : 3;
6F15 : 1;
6F16 : 1;
6F17 : 2;
6F18 : 1;
6F19 : 1;
6F1A : 7;
6F1B : 2;
6F1C : 1;
6F1D : 2;
6F1E : 1;
6F1F : 1;
6F20 : 2;
6F21 : 1;
6F22 : 2;
6F23 : 2;
6F24 : 1;
6F25 : 2;
6F26 : 1;
6F27 : 2;
6F28 : 1;
6F29 : 1;
6F2A : B;
6F2B : 2;
6F2C : 1;
6F2D : 1;
6F2E : 1;
6F2F : 1;
6F30 : 1;
6F31 : 1;
6F32 : 1;
6F33 : 1;
6F34 : 0;
6F35 : 1;
6F36 : 2;
6F37 : 1;
6F38 : 1;
6F39 : 1;
6F3A : 1;
6F3B : 2;
6F3C : 2;
6F3D : 1;
6F3E : 2;
6F3F : 1;
6F40 : 2;
6F41 : 1;
6F42 : 0;
6F43 : 1;
6F44 : 1;
6F45 : 7;
6F46 : 1;
6F47 : 2;
6F48 : 1;
6F49 : 1;
6F4A : 1;
6F4B : 1;
6F4C : 1;
6F4D : 1;
6F4E : 2;
6F4F : 1;
6F50 : 1;
6F51 : 1;
6F52 : 1;
6F53 : 2;
6F54 : 2;
6F55 : 1;
6F56 : 1;
6F57 : 3;
6F58 : 1;
6F59 : 3;
6F5A : 1;
6F5B : 2;
6F5C : 2;
6F5D : 2;
6F5E : 2;
6F5F : 1;
6F60 : 1;
6F61 : 3;
6F62 : 3;
6F63 : 3;
6F64 : 1;
6F65 : 2;
6F66 : 3;
6F67 : 1;
6F68 : 7;
6F69 : 2;
6F6A : 2;
6F6B : 3;
6F6C : 2;
6F6D : 2;
6F6E : 1;
6F6F : 1;
6F70 : 3;
6F71 : 1;
6F72 : 3;
6F73 : 1;
6F74 : 2;
6F75 : 3;
6F76 : 4;
6F77 : C;
6F78 : 9;
6F79 : 4;
6F7A : 4;
6F7B : 8;
6F7C : 3;
6F7D : 6;
6F7E : 7;
6F7F : 1;
6F80 : 1;
6F81 : 2;
6F82 : 1;
6F83 : 1;
6F84 : 1;
6F85 : 1;
6F86 : 1;
6F87 : 1;
6F88 : 1;
6F89 : 3;
6F8A : 1;
6F8B : 2;
6F8C : 2;
6F8D : 1;
6F8E : B;
6F8F : 2;
6F90 : 1;
6F91 : 1;
6F92 : 1;
6F93 : 1;
6F94 : 2;
6F95 : 2;
6F96 : 2;
6F97 : 4;
6F98 : 2;
6F99 : 3;
6F9A : 1;
6F9B : 0;
6F9C : 1;
6F9D : 0;
6F9E : 1;
6F9F : 2;
6FA0 : 1;
6FA1 : 1;
6FA2 : 1;
6FA3 : 1;
6FA4 : 2;
6FA5 : 0;
6FA6 : 0;
6FA7 : 1;
6FA8 : 0;
6FA9 : 7;
6FAA : 1;
6FAB : 1;
6FAC : 1;
6FAD : 1;
6FAE : 1;
6FAF : 0;
6FB0 : 1;
6FB1 : 1;
6FB2 : 2;
6FB3 : 1;
6FB4 : 1;
6FB5 : 1;
6FB6 : 1;
6FB7 : 2;
6FB8 : A;
6FB9 : B;
6FBA : 4;
6FBB : D;
6FBC : 5;
6FBD : F;
6FBE : 2;
6FBF : 3;
6FC0 : 3;
6FC1 : 4;
6FC2 : 3;
6FC3 : 1;
6FC4 : 1;
6FC5 : 4;
6FC6 : 4;
6FC7 : 3;
6FC8 : 2;
6FC9 : 3;
6FCA : 4;
6FCB : 1;
6FCC : 8;
6FCD : 3;
6FCE : 3;
6FCF : 5;
6FD0 : 3;
6FD1 : 3;
6FD2 : 1;
6FD3 : 3;
6FD4 : 8;
6FD5 : 3;
6FD6 : B;
6FD7 : 3;
6FD8 : B;
6FD9 : 8;
6FDA : D;
6FDB : F;
6FDC : C;
6FDD : 7;
6FDE : 6;
6FDF : 7;
6FE0 : 2;
6FE1 : 6;
6FE2 : 7;
6FE3 : 1;
6FE4 : 1;
6FE5 : 2;
6FE6 : 1;
6FE7 : 1;
6FE8 : 2;
6FE9 : 1;
6FEA : 1;
6FEB : 1;
6FEC : 1;
6FED : 3;
6FEE : 2;
6FEF : 2;
6FF0 : 3;
6FF1 : 6;
6FF2 : D;
6FF3 : 3;
6FF4 : 1;
6FF5 : 6;
6FF6 : 7;
6FF7 : 9;
6FF8 : E;
6FF9 : B;
6FFA : C;
6FFB : 15;
6FFC : 9;
6FFD : C;
6FFE : 2;
6FFF : 0;
7000 : 1;
7001 : 1;
7002 : 1;
7003 : 2;
7004 : 1;
7005 : 1;
7006 : 1;
7007 : 1;
7008 : 3;
7009 : 0;
700A : 0;
700B : 1;
700C : 0;
700D : 7;
700E : 1;
700F : 1;
7010 : 1;
7011 : 1;
7012 : 3;
7013 : 2;
7014 : 1;
7015 : 1;
7016 : 4;
7017 : 3;
7018 : 3;
7019 : 8;
701A : 5;
701B : 7;
701C : 11;
701D : 10;
701E : 6;
701F : 13;
7020 : 7;
7021 : 14;
7022 : 4;
7023 : 6;
7024 : 3;
7025 : 8;
7026 : 7;
7027 : 2;
7028 : 6;
7029 : 7;
702A : A;
702B : 8;
702C : 4;
702D : 6;
702E : 8;
702F : 8;
7030 : B;
7031 : 7;
7032 : 6;
7033 : B;
7034 : 6;
7035 : 5;
7036 : 9;
7037 : 3;
7038 : A;
7039 : 4;
703A : 8;
703B : 2;
703C : 7;
703D : 5;
703E : 8;
703F : C;
7040 : B;
7041 : 5;
7042 : 5;
7043 : 9;
7044 : 3;
7045 : 8;
7046 : 7;
7047 : A;
7048 : 3;
7049 : 4;
704A : 7;
704B : 8;
704C : B;
704D : 7;
704E : A;
704F : A;
7050 : 5;
7051 : 8;
7052 : 9;
7053 : 9;
7054 : 6;
7055 : 14;
7056 : 15;
7057 : 6;
7058 : 3;
7059 : D;
705A : F;
705B : 13;
705C : 17;
705D : 13;
705E : 12;
705F : 1C;
7060 : E;
7061 : 12;
7062 : 7;
7063 : 2;
7064 : 4;
7065 : 5;
7066 : 6;
7067 : 3;
7068 : 8;
7069 : 2;
706A : 7;
706B : 5;
706C : A;
706D : 3;
706E : 2;
706F : 7;
7070 : 3;
7071 : 8;
7072 : 5;
7073 : 9;
7074 : 5;
7075 : 4;
7076 : F;
7077 : 8;
7078 : 7;
7079 : 5;
707A : A;
707B : B;
707C : A;
707D : F;
707E : A;
707F : F;
7080 : B;
7081 : C;
7082 : 4;
7083 : 8;
7084 : 4;
7085 : A;
7086 : 3;
7087 : 5;
7088 : 3;
7089 : 7;
708A : 5;
708B : 2;
708C : B;
708D : 6;
708E : 7;
708F : 6;
7090 : 3;
7091 : 5;
7092 : 6;
7093 : 10;
7094 : B;
7095 : 5;
7096 : 5;
7097 : 9;
7098 : 5;
7099 : 4;
709A : 11;
709B : 4;
709C : B;
709D : 5;
709E : E;
709F : 4;
70A0 : D;
70A1 : A;
70A2 : F;
70A3 : F;
70A4 : F;
70A5 : 8;
70A6 : 7;
70A7 : 8;
70A8 : 3;
70A9 : 6;
70AA : 8;
70AB : 12;
70AC : 5;
70AD : 6;
70AE : E;
70AF : F;
70B0 : 14;
70B1 : D;
70B2 : 12;
70B3 : 15;
70B4 : A;
70B5 : F;
70B6 : E;
70B7 : E;
70B8 : 9;
70B9 : 18;
70BA : 18;
70BB : 7;
70BC : 7;
70BD : B;
70BE : F;
70BF : 10;
70C0 : F;
70C1 : C;
70C2 : E;
70C3 : E;
70C4 : 6;
70C5 : 9;
70C6 : D;
70C7 : 5;
70C8 : 7;
70C9 : A;
70CA : B;
70CB : 5;
70CC : 11;
70CD : 4;
70CE : E;
70CF : 9;
70D0 : 13;
70D1 : 5;
70D2 : 4;
70D3 : D;
70D4 : 6;
70D5 : 8;
70D6 : A;
70D7 : 12;
70D8 : A;
70D9 : 8;
70DA : 16;
70DB : D;
70DC : A;
70DD : A;
70DE : C;
70DF : D;
70E0 : C;
70E1 : F;
70E2 : 8;
70E3 : E;
70E4 : 1;
70E5 : 1;
70E6 : 1;
70E7 : 2;
70E8 : 1;
70E9 : 1;
70EA : 4;
70EB : 6;
70EC : 4;
70ED : 9;
70EE : 7;
70EF : 3;
70F0 : 7;
70F1 : 7;
70F2 : A;
70F3 : 9;
70F4 : 4;
70F5 : 7;
70F6 : 8;
70F7 : B;
70F8 : C;
70F9 : 7;
70FA : 7;
70FB : C;
70FC : 6;
70FD : 5;
70FE : C;
70FF : 3;
7100 : 9;
7101 : 4;
7102 : 5;
7103 : 2;
7104 : 5;
7105 : 2;
7106 : 3;
7107 : C;
7108 : 3;
7109 : 1;
710A : 1;
710B : 1;
710C : 1;
710D : 1;
710E : 8;
710F : C;
7110 : 4;
7111 : 5;
7112 : 9;
7113 : A;
7114 : D;
7115 : 9;
7116 : B;
7117 : D;
7118 : 7;
7119 : B;
711A : 6;
711B : 7;
711C : 6;
711D : 5;
711E : D;
711F : 4;
7120 : 4;
7121 : 2;
7122 : 3;
7123 : 4;
7124 : 1;
7125 : 1;
7126 : 1;
7127 : 1;
7128 : 1;
7129 : 1;
712A : 9;
712B : 3;
712C : 6;
712D : 7;
712E : 8;
712F : 4;
7130 : B;
7131 : 3;
7132 : B;
7133 : 6;
7134 : D;
7135 : 4;
7136 : 3;
7137 : 8;
7138 : 5;
7139 : 7;
713A : 7;
713B : C;
713C : 7;
713D : 5;
713E : 9;
713F : 5;
7140 : 4;
7141 : 7;
7142 : 4;
7143 : 3;
7144 : 3;
7145 : 2;
7146 : 2;
7147 : 4;
7148 : 1;
7149 : 1;
714A : 1;
714B : 2;
714C : 1;
714D : 1;
714E : 1;
714F : 3;
7150 : 2;
7151 : 1;
7152 : 2;
7153 : 0;
7154 : 1;
7155 : 2;
7156 : 1;
7157 : 3;
7158 : 2;
7159 : 1;
715A : 2;
715B : 1;
715C : 7;
715D : 1;
715E : 2;
715F : 1;
7160 : 1;
7161 : 1;
7162 : 1;
7163 : 0;
7164 : 3;
7165 : 1;
7166 : 1;
7167 : 2;
7168 : 1;
7169 : 0;
716A : 1;
716B : C;
716C : 3;
716D : 1;
716E : 1;
716F : 1;
7170 : 0;
7171 : 0;
7172 : 7;
7173 : 1;
7174 : 3;
7175 : 2;
7176 : 1;
7177 : 1;
7178 : 3;
7179 : 1;
717A : 1;
717B : 1;
717C : 1;
717D : 5;
717E : 1;
717F : 3;
7180 : 5;
7181 : 2;
7182 : C;
7183 : 4;
7184 : 1;
7185 : 1;
7186 : 3;
7187 : 3;
7188 : 1;
7189 : 0;
718A : 1;
718B : 1;
718C : 0;
718D : 0;
718E : 4;
718F : 1;
7190 : 1;
7191 : 1;
7192 : 3;
7193 : 2;
7194 : 1;
7195 : 2;
7196 : 1;
7197 : 1;
7198 : 5;
7199 : 0;
719A : 0;
719B : 1;
719C : 0;
719D : 7;
719E : 1;
719F : 1;
71A0 : 3;
71A1 : 2;
71A2 : 1;
71A3 : 1;
71A4 : 1;
71A5 : 1;
71A6 : 2;
71A7 : 1;
71A8 : 1;
71A9 : 1;
71AA : 1;
71AB : 4;
71AC : 1;
71AD : 1;
71AE : 1;
71AF : 2;
71B0 : 1;
71B1 : 1;
71B2 : 0;
71B3 : 2;
71B4 : 2;
71B5 : 1;
71B6 : 2;
71B7 : 0;
71B8 : 0;
71B9 : 2;
71BA : 1;
71BB : 3;
71BC : 2;
71BD : 0;
71BE : 1;
71BF : 0;
71C0 : 7;
71C1 : 1;
71C2 : 1;
71C3 : 0;
71C4 : 0;
71C5 : 1;
71C6 : 1;
71C7 : 0;
71C8 : 3;
71C9 : 2;
71CA : 0;
71CB : 2;
71CC : 1;
71CD : 0;
71CE : 0;
71CF : B;
71D0 : 3;
71D1 : 1;
71D2 : 1;
71D3 : 0;
71D4 : 0;
71D5 : 0;
71D6 : 7;
71D7 : 0;
71D8 : 2;
71D9 : 2;
71DA : 0;
71DB : 0;
71DC : 3;
71DD : 2;
71DE : 2;
71DF : 0;
71E0 : 1;
71E1 : 4;
71E2 : 1;
71E3 : 2;
71E4 : 4;
71E5 : 2;
71E6 : B;
71E7 : 7;
71E8 : 1;
71E9 : 1;
71EA : 2;
71EB : 3;
71EC : 0;
71ED : 0;
71EE : 1;
71EF : 1;
71F0 : 0;
71F1 : 0;
71F2 : 3;
71F3 : 1;
71F4 : 1;
71F5 : 1;
71F6 : 3;
71F7 : 2;
71F8 : 1;
71F9 : 2;
71FA : 1;
71FB : 1;
71FC : 4;
71FD : 0;
71FE : 0;
71FF : 1;
7200 : 0;
7201 : 7;
7202 : 2;
7203 : 0;
7204 : 3;
7205 : 1;
7206 : 2;
7207 : 0;
7208 : 1;
7209 : 1;
720A : 2;
720B : 1;
720C : 1;
720D : 0;
720E : 1;
720F : 3;
7210 : 1;
7211 : 1;
7212 : 1;
7213 : 2;
7214 : 1;
7215 : 1;
7216 : 0;
7217 : 2;
7218 : 2;
7219 : 1;
721A : 2;
721B : 0;
721C : 1;
721D : 2;
721E : 1;
721F : 2;
7220 : 1;
7221 : 1;
7222 : 1;
7223 : 1;
7224 : 7;
7225 : 1;
7226 : 2;
7227 : 1;
7228 : 0;
7229 : 1;
722A : 1;
722B : 0;
722C : 3;
722D : 2;
722E : 1;
722F : 2;
7230 : 1;
7231 : 1;
7232 : 1;
7233 : B;
7234 : 3;
7235 : 2;
7236 : 1;
7237 : 1;
7238 : 1;
7239 : 0;
723A : 7;
723B : 1;
723C : 2;
723D : 2;
723E : 0;
723F : 1;
7240 : 2;
7241 : 2;
7242 : 2;
7243 : 1;
7244 : 1;
7245 : 6;
7246 : 1;
7247 : 2;
7248 : 3;
7249 : 2;
724A : B;
724B : 4;
724C : 1;
724D : 1;
724E : 2;
724F : 2;
7250 : 1;
7251 : 0;
7252 : 1;
7253 : 1;
7254 : 0;
7255 : 0;
7256 : 3;
7257 : 1;
7258 : 1;
7259 : 1;
725A : 2;
725B : 2;
725C : 1;
725D : 1;
725E : 1;
725F : 1;
7260 : 3;
7261 : 0;
7262 : 0;
7263 : 1;
7264 : 0;
7265 : 7;
7266 : 1;
7267 : 0;
7268 : 2;
7269 : 2;
726A : 2;
726B : 0;
726C : 1;
726D : 1;
726E : 2;
726F : 1;
7270 : 1;
7271 : 0;
7272 : 1;
7273 : 3;
7274 : 1;
7275 : 1;
7276 : 1;
7277 : 1;
7278 : 1;
7279 : 1;
727A : 1;
727B : 2;
727C : 2;
727D : 1;
727E : 2;
727F : 0;
7280 : 1;
7281 : 2;
7282 : 1;
7283 : 2;
7284 : 1;
7285 : 1;
7286 : 1;
7287 : 1;
7288 : 7;
7289 : 1;
728A : 2;
728B : 1;
728C : 0;
728D : 2;
728E : 1;
728F : 0;
7290 : 4;
7291 : 2;
7292 : 1;
7293 : 2;
7294 : 2;
7295 : 1;
7296 : 1;
7297 : C;
7298 : 3;
7299 : 2;
729A : 1;
729B : 1;
729C : 1;
729D : 1;
729E : 7;
729F : 1;
72A0 : 1;
72A1 : 2;
72A2 : 1;
72A3 : 1;
72A4 : 2;
72A5 : 2;
72A6 : 2;
72A7 : 1;
72A8 : 1;
72A9 : 8;
72AA : 1;
72AB : 3;
72AC : 2;
72AD : 2;
72AE : C;
72AF : 5;
72B0 : 1;
72B1 : 1;
72B2 : 1;
72B3 : 2;
72B4 : 1;
72B5 : 1;
72B6 : 1;
72B7 : 1;
72B8 : 1;
72B9 : 1;
72BA : 3;
72BB : 1;
72BC : 1;
72BD : 1;
72BE : 2;
72BF : 2;
72C0 : 1;
72C1 : 1;
72C2 : 1;
72C3 : 2;
72C4 : 3;
72C5 : 0;
72C6 : 0;
72C7 : 1;
72C8 : 0;
72C9 : 6;
72CA : 1;
72CB : 1;
72CC : 2;
72CD : 2;
72CE : 2;
72CF : 1;
72D0 : 1;
72D1 : 1;
72D2 : 2;
72D3 : 2;
72D4 : 1;
72D5 : 1;
72D6 : 1;
72D7 : 4;
72D8 : 1;
72D9 : 1;
72DA : 1;
72DB : 1;
72DC : 1;
72DD : 1;
72DE : 1;
72DF : 1;
72E0 : 2;
72E1 : 1;
72E2 : 2;
72E3 : 0;
72E4 : 1;
72E5 : 2;
72E6 : 1;
72E7 : 1;
72E8 : 1;
72E9 : 1;
72EA : 2;
72EB : 1;
72EC : 7;
72ED : 1;
72EE : 2;
72EF : 1;
72F0 : 0;
72F1 : 3;
72F2 : 1;
72F3 : 0;
72F4 : 7;
72F5 : 2;
72F6 : 1;
72F7 : 2;
72F8 : 2;
72F9 : 1;
72FA : 1;
72FB : B;
72FC : 3;
72FD : 2;
72FE : 1;
72FF : 1;
7300 : 1;
7301 : 1;
7302 : 7;
7303 : 1;
7304 : 1;
7305 : 2;
7306 : 1;
7307 : 1;
7308 : 3;
7309 : 2;
730A : 2;
730B : 1;
730C : 1;
730D : C;
730E : 1;
730F : 2;
7310 : 2;
7311 : 2;
7312 : B;
7313 : 5;
7314 : 1;
7315 : 1;
7316 : 1;
7317 : 1;
7318 : 1;
7319 : 1;
731A : 1;
731B : 1;
731C : 1;
731D : 1;
731E : 4;
731F : 1;
7320 : 1;
7321 : 1;
7322 : 2;
7323 : 2;
7324 : 2;
7325 : 1;
7326 : 1;
7327 : 3;
7328 : 2;
7329 : 0;
732A : 0;
732B : 1;
732C : 0;
732D : 7;
732E : 2;
732F : 1;
7330 : 1;
7331 : 2;
7332 : 2;
7333 : 1;
7334 : 1;
7335 : 1;
7336 : 2;
7337 : 1;
7338 : 1;
7339 : 1;
733A : 1;
733B : 4;
733C : 1;
733D : 1;
733E : 1;
733F : 1;
7340 : 1;
7341 : 1;
7342 : 1;
7343 : 1;
7344 : 2;
7345 : 1;
7346 : 3;
7347 : 0;
7348 : 1;
7349 : 2;
734A : 1;
734B : 2;
734C : 1;
734D : 1;
734E : 2;
734F : 1;
7350 : 6;
7351 : 1;
7352 : 2;
7353 : 1;
7354 : 1;
7355 : 3;
7356 : 1;
7357 : 1;
7358 : 9;
7359 : 3;
735A : 2;
735B : 2;
735C : 3;
735D : 2;
735E : 3;
735F : C;
7360 : 7;
7361 : 5;
7362 : 3;
7363 : 6;
7364 : 2;
7365 : 5;
7366 : 6;
7367 : 1;
7368 : 1;
7369 : 2;
736A : 0;
736B : 1;
736C : 5;
736D : 3;
736E : 3;
736F : 1;
7370 : 1;
7371 : B;
7372 : 1;
7373 : 2;
7374 : 2;
7375 : 2;
7376 : C;
7377 : 4;
7378 : 1;
7379 : 2;
737A : 1;
737B : 1;
737C : 1;
737D : 1;
737E : 1;
737F : 1;
7380 : 1;
7381 : 1;
7382 : 3;
7383 : 1;
7384 : 1;
7385 : 1;
7386 : 1;
7387 : 3;
7388 : 2;
7389 : 1;
738A : 1;
738B : 2;
738C : 2;
738D : 1;
738E : 0;
738F : 1;
7390 : 0;
7391 : 7;
7392 : 2;
7393 : 1;
7394 : 1;
7395 : 2;
7396 : 3;
7397 : 1;
7398 : 1;
7399 : 1;
739A : 2;
739B : 1;
739C : 2;
739D : 1;
739E : 1;
739F : 5;
73A0 : A;
73A1 : A;
73A2 : 3;
73A3 : A;
73A4 : 4;
73A5 : D;
73A6 : D;
73A7 : 12;
73A8 : 8;
73A9 : 1D;
73AA : 15;
73AB : 8;
73AC : 2;
73AD : 17;
73AE : 1F;
73AF : 1A;
73B0 : D;
73B1 : 16;
73B2 : 1A;
73B3 : 3;
73B4 : 1F;
73B5 : 17;
73B6 : 16;
73B7 : 27;
73B8 : 13;
73B9 : 13;
73BA : 4;
73BB : F;
73BC : 31;
73BD : 13;
73BE : 3A;
73BF : E;
73C0 : 36;
73C1 : 2D;
73C2 : 47;
73C3 : 2D;
73C4 : 58;
73C5 : 2D;
73C6 : 27;
73C7 : 3A;
73C8 : 15;
73C9 : 34;
73CA : 7;
73CB : 4;
73CC : 1;
73CD : 3;
73CE : 2;
73CF : 3;
73D0 : 7;
73D1 : 5;
73D2 : 5;
73D3 : 4;
73D4 : 2;
73D5 : D;
73D6 : 3;
73D7 : 4;
73D8 : 3;
73D9 : 8;
73DA : D;
73DB : 5;
73DC : 2;
73DD : 6;
73DE : 7;
73DF : 8;
73E0 : C;
73E1 : A;
73E2 : A;
73E3 : 11;
73E4 : 8;
73E5 : B;
73E6 : 5;
73E7 : 2;
73E8 : 2;
73E9 : 2;
73EA : 3;
73EB : 3;
73EC : 4;
73ED : 1;
73EE : 3;
73EF : 3;
73F0 : 4;
73F1 : 2;
73F2 : 1;
73F3 : 3;
73F4 : 1;
73F5 : 7;
73F6 : 4;
73F7 : 3;
73F8 : 3;
73F9 : 3;
73FA : 7;
73FB : 3;
73FC : 3;
73FD : 2;
73FE : 4;
73FF : 5;
7400 : 5;
7401 : 7;
7402 : 5;
7403 : 9;
7404 : 2D;
7405 : 31;
7406 : 10;
7407 : 2F;
7408 : 12;
7409 : 36;
740A : 14;
740B : 1C;
740C : D;
740D : 2E;
740E : 21;
740F : C;
7410 : 15;
7411 : 22;
7412 : 33;
7413 : 28;
7414 : 15;
7415 : 21;
7416 : 29;
7417 : 20;
7418 : 32;
7419 : 23;
741A : 20;
741B : 3A;
741C : 1F;
741D : 1B;
741E : 23;
741F : 11;
7420 : 36;
7421 : 16;
7422 : 34;
7423 : C;
7424 : 31;
7425 : 1F;
7426 : 2F;
7427 : 20;
7428 : 30;
7429 : 1D;
742A : 17;
742B : 25;
742C : D;
742D : 1F;
742E : B;
742F : 26;
7430 : A;
7431 : C;
7432 : 1C;
7433 : 1E;
7434 : 2A;
7435 : 1E;
7436 : 24;
7437 : 2A;
7438 : 16;
7439 : 24;
743A : 21;
743B : 1E;
743C : 14;
743D : 3A;
743E : 36;
743F : 10;
7440 : D;
7441 : 21;
7442 : 2B;
7443 : 32;
7444 : 3B;
7445 : 30;
7446 : 34;
7447 : 47;
7448 : 21;
7449 : 2D;
744A : 1B;
744B : A;
744C : 10;
744D : 15;
744E : 16;
744F : C;
7450 : 23;
7451 : 8;
7452 : 1F;
7453 : 14;
7454 : 27;
7455 : B;
7456 : 8;
7457 : 1B;
7458 : E;
7459 : B;
745A : 15;
745B : 26;
745C : 15;
745D : 10;
745E : 31;
745F : 1D;
7460 : 17;
7461 : 15;
7462 : 1E;
7463 : 21;
7464 : 1E;
7465 : 2D;
7466 : 1B;
7467 : 29;
7468 : 21;
7469 : 22;
746A : C;
746B : 27;
746C : 10;
746D : 2F;
746E : 1B;
746F : 27;
7470 : 10;
7471 : 3C;
7472 : 2D;
7473 : 11;
7474 : 1A;
7475 : 2E;
7476 : 41;
7477 : 34;
7478 : 1C;
7479 : 2B;
747A : 36;
747B : 25;
747C : 40;
747D : 30;
747E : 2D;
747F : 4F;
7480 : 28;
7481 : 27;
7482 : 28;
7483 : 1B;
7484 : 53;
7485 : 22;
7486 : 5A;
7487 : 16;
7488 : 55;
7489 : 3E;
748A : 62;
748B : 3E;
748C : 67;
748D : 36;
748E : 30;
748F : 42;
7490 : 17;
7491 : 39;
7492 : C;
7493 : 2D;
7494 : D;
7495 : D;
7496 : 20;
7497 : 26;
7498 : 32;
7499 : 22;
749A : 2A;
749B : 33;
749C : 19;
749D : 2D;
749E : 22;
749F : 20;
74A0 : 13;
74A1 : 36;
74A2 : 30;
74A3 : 10;
74A4 : 10;
74A5 : 1F;
74A6 : 27;
74A7 : 2E;
74A8 : 30;
74A9 : 26;
74AA : 28;
74AB : 3B;
74AC : 1B;
74AD : 26;
74AE : 20;
74AF : C;
74B0 : 11;
74B1 : 18;
74B2 : 1B;
74B3 : D;
74B4 : 28;
74B5 : 9;
74B6 : 23;
74B7 : 18;
74B8 : 30;
74B9 : D;
74BA : 9;
74BB : 20;
74BC : 10;
74BD : C;
74BE : 18;
74BF : 2C;
74C0 : 17;
74C1 : 14;
74C2 : 34;
74C3 : 1E;
74C4 : 19;
74C5 : 1A;
74C6 : 19;
74C7 : 1F;
74C8 : 1B;
74C9 : 2A;
74CA : 19;
74CB : 26;
74CC : 3E;
74CD : 42;
74CE : 16;
74CF : 35;
74D0 : 14;
74D1 : 3A;
74D2 : D;
74D3 : 12;
74D4 : 8;
74D5 : 1C;
74D6 : 15;
74D7 : 8;
74D8 : 2B;
74D9 : 16;
74DA : 1F;
74DB : 1B;
74DC : D;
74DD : 16;
74DE : 1A;
74DF : 3F;
74E0 : 1F;
74E1 : 17;
74E2 : 15;
74E3 : 26;
74E4 : 14;
74E5 : 14;
74E6 : 45;
74E7 : B;
74E8 : 2A;
74E9 : 11;
74EA : 23;
74EB : 9;
74EC : 21;
74ED : 13;
74EE : 1D;
74EF : 16;
74F0 : 26;
74F1 : 16;
74F2 : 11;
74F3 : 10;
74F4 : 5;
74F5 : B;
74F6 : 12;
74F7 : 4F;
74F8 : 15;
74F9 : 17;
74FA : 38;
74FB : 3F;
74FC : 55;
74FD : 3B;
74FE : 49;
74FF : 56;
7500 : 2B;
7501 : 44;
7502 : 3A;
7503 : 38;
7504 : 24;
7505 : 58;
7506 : 50;
7507 : 19;
7508 : 1A;
7509 : 34;
750A : 42;
750B : 4E;
750C : 50;
750D : 42;
750E : 46;
750F : 4C;
7510 : 24;
7511 : 31;
7512 : 34;
7513 : 12;
7514 : 20;
7515 : 2A;
7516 : 2C;
7517 : 15;
7518 : 43;
7519 : 11;
751A : 3C;
751B : 29;
751C : 4F;
751D : 16;
751E : 10;
751F : 37;
7520 : 1C;
7521 : 12;
7522 : 29;
7523 : 4C;
7524 : 29;
7525 : 22;
7526 : 5B;
7527 : 35;
7528 : 2C;
7529 : 2B;
752A : 2D;
752B : 34;
752C : 2F;
752D : 44;
752E : 2A;
752F : 3E;
END
